
================ Simulation setup ================
  Run label:         /work/e643/e643/shared/multi_ellip/studies/departing_sphericity_sweep/runs/spheroid_prolate/homogeneous/spheroid_prolate_homogeneous_eps0p0003_rho1_E0p5_sep8_run04_impulse_noproj/
  Started:           2026-06-24 02:23:10
  Input file:        /work/e643/e643/shared/multi_ellip/studies/departing_sphericity_sweep/runs/spheroid_prolate/homogeneous/spheroid_prolate_homogeneous_eps0p0003_rho1_E0p5_sep8_run04_impulse_noproj/input.txt
  Output file:       /work/e643/e643/shared/multi_ellip/studies/departing_sphericity_sweep/runs/spheroid_prolate/homogeneous/spheroid_prolate_homogeneous_eps0p0003_rho1_E0p5_sep8_run04_impulse_noproj/multiple_body_complete.dat
  Bodies:            2
  Fluid density:     1
  Mesh:              ndiv 2 -> 256 triangles / 516 nodes
  Simulated time:    0 -> 100  (dt = 0.05, ~2000 steps)
  Output cadence:    every 1 step(s)
  Output rows:       ~2001
  Progress cadence:  every 100 step(s)
  CPU cores:         256 available, 8 Rayon worker thread(s)
  Strong coupling:   disabled
  Impulse scheme:    enabled
  Hamiltonian step:  disabled
  Hamiltonian midpt: disabled
  Variational step:  disabled
  Energy projection: disabled
  Projection particular metric: Euclidean
  Fluid KE gradient: disabled  (eps = 0.001, scale = 1, linear = 1, angular = 1)
  Fluid KE discrete gradient: disabled
  Impulse pair metric correction: disabled  (mode = pair discrete-gradient, cutoff = all pairs, inner/outer = 0/0, eps = 0.001, linear scale = 1, angular scale = 0)
  Impulse metric correction: disabled  (internal load constraint = disabled)
  Impulse variational defect probe: disabled
  Impulse quadratic pressure: disabled  (scale = 1)
  Added-mass stab:   disabled
  Exact BEM geometry: disabled
  Exact singular BEM: disabled
  Legacy singular SLP diagnostic: disabled
  Phi-dot blend:     0 (off)

  Solver guidance:
    - Strong coupling: use for stiff close-coupled runs; slower but more implicit.
    - Impulse scheme: use when impulse/momentum conservation or KE drift is the focus. Recommended.
    - Added-mass stab: use for higher mesh counts (ndiv > 3) to preserve stability - deprecated.
================================================
Solver starting - good luck!

Initial state:
  Body  1
    density:          1.000000
    shape axes ratio: (1.000000, 0.999101, 0.999101)
    initial KE ratio: 0.500000
    position:         (-4.000000, 0.000000, 0.000000)
    velocity:         (4.608910, -3.133528, -0.726276)
    angular velocity: (2.264945, 0.296103, 5.853270)
    orientation:      (w=-0.592137, i=0.710616, j=-0.379617, k=-0.017001)
  Body  2
    density:          1.000000
    shape axes ratio: (1.000000, 0.999101, 0.999101)
    initial KE ratio: 0.500000
    position:         (4.000000, 0.000000, 0.000000)
    velocity:         (4.608487, -3.133241, -0.726209)
    angular velocity: (-3.631059, -3.962828, -3.254200)
    orientation:      (w=0.551428, i=0.318560, j=0.230525, k=-0.735734)

Preparing first step: implicit scheme, no bootstrap passes required.
First step may take longer than later steps.

First step completed in 8.799 s.

Step   100/2000    5.0% | t 5.000 | ETA 3m 1s | step 0.10s | KE 277.2230 | drift +2.45% | fluid 72.1693 | solid 205.0537
  Impulse FP iterations last/mean/max 7/7.00/7
Step   200/2000   10.0% | t 10.000 | ETA 2m 55s | step 0.10s | KE 286.6693 | drift +5.94% | fluid 72.1648 | solid 214.5044
  Impulse FP iterations last/mean/max 7/7.03/8
Step   300/2000   15.0% | t 15.000 | ETA 2m 47s | step 0.10s | KE 298.9307 | drift +10.47% | fluid 72.1603 | solid 226.7704
  Impulse FP iterations last/mean/max 7/7.10/8
Step   400/2000   20.0% | t 20.000 | ETA 2m 40s | step 0.11s | KE 313.9901 | drift +16.03% | fluid 72.1598 | solid 241.8303
  Impulse FP iterations last/mean/max 8/7.16/8
Step   500/2000   25.0% | t 25.000 | ETA 2m 31s | step 0.11s | KE 331.8351 | drift +22.63% | fluid 72.1584 | solid 259.6767
  Impulse FP iterations last/mean/max 8/7.22/8
Step   600/2000   30.0% | t 30.000 | ETA 2m 22s | step 0.09s | KE 352.4433 | drift +30.24% | fluid 72.1716 | solid 280.2717
  Impulse FP iterations last/mean/max 7/7.28/8
Step   700/2000   35.0% | t 35.000 | ETA 2m 12s | step 0.11s | KE 375.8094 | drift +38.88% | fluid 72.1712 | solid 303.6382
  Impulse FP iterations last/mean/max 8/7.32/8
Step   800/2000   40.0% | t 40.000 | ETA 2m 3s | step 0.10s | KE 401.9216 | drift +48.53% | fluid 72.1576 | solid 329.7640
  Impulse FP iterations last/mean/max 8/7.37/8
Step   900/2000   45.0% | t 45.000 | ETA 1m 53s | step 0.10s | KE 430.7447 | drift +59.18% | fluid 72.1669 | solid 358.5779
  Impulse FP iterations last/mean/max 7/7.41/8
Step  1000/2000   50.0% | t 50.000 | ETA 1m 43s | step 0.10s | KE 462.2838 | drift +70.83% | fluid 72.1590 | solid 390.1248
  Impulse FP iterations last/mean/max 8/7.45/8
Step  1100/2000   55.0% | t 55.000 | ETA 1m 34s | step 0.11s | KE 496.4996 | drift +83.48% | fluid 72.1737 | solid 424.3259
  Impulse FP iterations last/mean/max 8/7.49/8
Step  1200/2000   60.0% | t 60.000 | ETA 1m 24s | step 0.10s | KE 533.4042 | drift +97.12% | fluid 72.1719 | solid 461.2323
  Impulse FP iterations last/mean/max 7/7.52/8
Step  1300/2000   65.0% | t 65.000 | ETA 1m 13s | step 0.11s | KE 572.9787 | drift +111.74% | fluid 72.1620 | solid 500.8167
  Impulse FP iterations last/mean/max 8/7.55/8
Step  1400/2000   70.0% | t 70.000 | ETA 1m 3s | step 0.09s | KE 615.1975 | drift +127.34% | fluid 72.1595 | solid 543.0381
  Impulse FP iterations last/mean/max 8/7.57/8
Step  1500/2000   75.0% | t 75.000 | ETA 52s | step 0.10s | KE 660.0341 | drift +143.91% | fluid 72.1706 | solid 587.8635
  Impulse FP iterations last/mean/max 8/7.59/8
Step  1600/2000   80.0% | t 80.000 | ETA 41s | step 0.09s | KE 707.5198 | drift +161.46% | fluid 72.1581 | solid 635.3618
  Impulse FP iterations last/mean/max 8/7.61/8
Step  1700/2000   85.0% | t 85.000 | ETA 30s | step 0.08s | KE 757.5905 | drift +179.96% | fluid 72.1646 | solid 685.4259
  Impulse FP iterations last/mean/max 8/7.63/8
Step  1800/2000   90.0% | t 90.000 | ETA 20s | step 0.06s | KE 810.2582 | drift +199.43% | fluid 72.1666 | solid 738.0916
  Impulse FP iterations last/mean/max 7/7.64/8
Step  1900/2000   95.0% | t 95.000 | ETA 10s | step 0.07s | KE 865.5052 | drift +219.84% | fluid 72.1701 | solid 793.3351
  Impulse FP iterations last/mean/max 8/7.65/8
Solver finished successfully - good job!
Results saved successfully.

================== Run summary ==================
  Bodies:            2
  Triangles / nodes: 256 / 516
  Timesteps:         2000  (dt = 0.05)
  Simulated time:    0 -> 100
  First-step setup:  8.799 s
  Mean time/step:    0.0984 s  (excl. first step)
  Total wall time:   3m 25s
  Impulse FP iters last/mean/max: 8 / 7.660 / 8
  Approx impulse solves/step:     7.661
  Impulse start cache hits/direct: 1999 / 1
  Impulse global drift P/H:       5.081022e-9 / 5.430577e-2
  Impulse per-body max drift P/H: 1.078956e-8 / 5.813821e-3
  CPU cores:         256 available, 8 Rayon worker thread(s)
  Started:           2026-06-24 02:23:10
  Finished:          2026-06-24 02:26:36
  Output file:       /work/e643/e643/shared/multi_ellip/studies/departing_sphericity_sweep/runs/spheroid_prolate/homogeneous/spheroid_prolate_homogeneous_eps0p0003_rho1_E0p5_sep8_run04_impulse_noproj/multiple_body_complete.dat
================================================
