
================ Simulation setup ================
  Run label:         /work/e643/e643/shared/multi_ellip/studies/two_body_paper_sweeps/runs/ellipsoid_1_0p8_0p6/ellipsoid_1_0p8_0p6_rho0p1_E4_sep8_run04_impulse_noproj/
  Started:           2026-06-24 02:14:39
  Input file:        /work/e643/e643/shared/multi_ellip/studies/two_body_paper_sweeps/runs/ellipsoid_1_0p8_0p6/ellipsoid_1_0p8_0p6_rho0p1_E4_sep8_run04_impulse_noproj/input.txt
  Output file:       /work/e643/e643/shared/multi_ellip/studies/two_body_paper_sweeps/runs/ellipsoid_1_0p8_0p6/ellipsoid_1_0p8_0p6_rho0p1_E4_sep8_run04_impulse_noproj/multiple_body_complete.dat
  Bodies:            2
  Fluid density:     1
  Mesh:              ndiv 2 -> 256 triangles / 516 nodes
  Simulated time:    0 -> 100  (dt = 0.05, ~2000 steps)
  Output cadence:    every 1 step(s)
  Output rows:       ~2001
  Progress cadence:  every 100 step(s)
  CPU cores:         256 available, 8 Rayon worker thread(s)
  Strong coupling:   disabled
  Impulse scheme:    enabled
  Hamiltonian step:  disabled
  Hamiltonian midpt: disabled
  Variational step:  disabled
  Energy projection: disabled
  Projection particular metric: Euclidean
  Fluid KE gradient: disabled  (eps = 0.001, scale = 1, linear = 1, angular = 1)
  Fluid KE discrete gradient: disabled
  Impulse pair metric correction: disabled  (mode = pair discrete-gradient, cutoff = all pairs, inner/outer = 0/0, eps = 0.001, linear scale = 1, angular scale = 0)
  Impulse metric correction: disabled  (internal load constraint = disabled)
  Impulse variational defect probe: disabled
  Impulse quadratic pressure: disabled  (scale = 1)
  Added-mass stab:   disabled
  Exact BEM geometry: disabled
  Exact singular BEM: disabled
  Legacy singular SLP diagnostic: disabled
  Phi-dot blend:     0 (off)

  Solver guidance:
    - Strong coupling: use for stiff close-coupled runs; slower but more implicit.
    - Impulse scheme: use when impulse/momentum conservation or KE drift is the focus. Recommended.
    - Added-mass stab: use for higher mesh counts (ndiv > 3) to preserve stability - deprecated.
================================================
Solver starting - good luck!

Initial state:
  Body  1
    density:          0.100000
    shape axes ratio: (1.000000, 0.800000, 0.600000)
    initial KE ratio: 4.000000
    position:         (-4.000000, 0.000000, 0.000000)
    velocity:         (-1.818730, 0.732096, -0.271042)
    angular velocity: (-4.190383, -4.423146, -1.534564)
    orientation:      (w=-0.385739, i=0.560462, j=-0.679218, k=-0.275230)
  Body  2
    density:          0.100000
    shape axes ratio: (1.000000, 0.800000, 0.600000)
    initial KE ratio: 4.000000
    position:         (4.000000, 0.000000, 0.000000)
    velocity:         (-1.843014, 0.741871, -0.274661)
    angular velocity: (-4.893145, -0.601637, -3.895328)
    orientation:      (w=-0.235465, i=0.831980, j=0.314813, k=-0.391481)

Preparing first step: implicit scheme, no bootstrap passes required.
First step may take longer than later steps.

First step completed in 0.405 s.

Step   100/2000    5.0% | t 5.000 | ETA 8m 19s | step 0.25s | KE 23.7058 | drift -4.07% | fluid 14.5978 | solid 9.1080
  Impulse FP iterations last/mean/max 18/18.32/20
Step   200/2000   10.0% | t 10.000 | ETA 7m 58s | step 0.28s | KE 26.2995 | drift +6.43% | fluid 17.4100 | solid 8.8895
  Impulse FP iterations last/mean/max 20/18.45/21
Step   300/2000   15.0% | t 15.000 | ETA 7m 21s | step 0.24s | KE 27.8250 | drift +12.60% | fluid 20.1015 | solid 7.7236
  Impulse FP iterations last/mean/max 19/18.58/22
Step   400/2000   20.0% | t 20.000 | ETA 6m 49s | step 0.25s | KE 28.3606 | drift +14.77% | fluid 18.9107 | solid 9.4498
  Impulse FP iterations last/mean/max 19/18.64/22
Step   500/2000   25.0% | t 25.000 | ETA 6m 23s | step 0.25s | KE 28.4602 | drift +15.17% | fluid 18.8508 | solid 9.6094
  Impulse FP iterations last/mean/max 18/18.69/22
Step   600/2000   30.0% | t 30.000 | ETA 6m 0s | step 0.25s | KE 28.4559 | drift +15.15% | fluid 18.7666 | solid 9.6893
  Impulse FP iterations last/mean/max 18/18.70/22
Step   700/2000   35.0% | t 35.000 | ETA 5m 38s | step 0.29s | KE 28.7257 | drift +16.24% | fluid 18.7172 | solid 10.0085
  Impulse FP iterations last/mean/max 21/18.75/22
Step   800/2000   40.0% | t 40.000 | ETA 5m 14s | step 0.29s | KE 28.8469 | drift +16.73% | fluid 19.3851 | solid 9.4618
  Impulse FP iterations last/mean/max 19/18.77/22
Step   900/2000   45.0% | t 45.000 | ETA 4m 49s | step 0.27s | KE 28.9000 | drift +16.95% | fluid 19.3045 | solid 9.5955
  Impulse FP iterations last/mean/max 19/18.78/22
Step  1000/2000   50.0% | t 50.000 | ETA 4m 23s | step 0.26s | KE 28.7848 | drift +16.48% | fluid 19.2487 | solid 9.5362
  Impulse FP iterations last/mean/max 19/18.79/22
Step  1100/2000   55.0% | t 55.000 | ETA 3m 57s | step 0.30s | KE 28.7801 | drift +16.46% | fluid 18.5443 | solid 10.2357
  Impulse FP iterations last/mean/max 21/18.79/22
Step  1200/2000   60.0% | t 60.000 | ETA 3m 31s | step 0.26s | KE 28.7243 | drift +16.24% | fluid 18.0350 | solid 10.6893
  Impulse FP iterations last/mean/max 18/18.77/22
Step  1300/2000   65.0% | t 65.000 | ETA 3m 5s | step 0.25s | KE 28.7033 | drift +16.15% | fluid 18.6821 | solid 10.0213
  Impulse FP iterations last/mean/max 18/18.79/22
Step  1400/2000   70.0% | t 70.000 | ETA 2m 39s | step 0.28s | KE 28.8105 | drift +16.59% | fluid 18.7732 | solid 10.0373
  Impulse FP iterations last/mean/max 20/18.79/22
Step  1500/2000   75.0% | t 75.000 | ETA 2m 12s | step 0.27s | KE 28.7382 | drift +16.30% | fluid 18.0615 | solid 10.6767
  Impulse FP iterations last/mean/max 19/18.78/22
Step  1600/2000   80.0% | t 80.000 | ETA 1m 46s | step 0.26s | KE 28.8591 | drift +16.78% | fluid 20.7692 | solid 8.0900
  Impulse FP iterations last/mean/max 19/18.78/22
Step  1700/2000   85.0% | t 85.000 | ETA 1m 20s | step 0.24s | KE 28.7608 | drift +16.39% | fluid 20.0513 | solid 8.7095
  Impulse FP iterations last/mean/max 17/18.80/22
Step  1800/2000   90.0% | t 90.000 | ETA 53s | step 0.27s | KE 28.7791 | drift +16.46% | fluid 18.9868 | solid 9.7923
  Impulse FP iterations last/mean/max 19/18.80/23
Step  1900/2000   95.0% | t 95.000 | ETA 26s | step 0.24s | KE 28.7648 | drift +16.40% | fluid 19.7221 | solid 9.0427
  Impulse FP iterations last/mean/max 17/18.81/23
Solver finished successfully - good job!
Results saved successfully.

================== Run summary ==================
  Bodies:            2
  Triangles / nodes: 256 / 516
  Timesteps:         2000  (dt = 0.05)
  Simulated time:    0 -> 100
  First-step setup:  0.405 s
  Mean time/step:    0.2662 s  (excl. first step)
  Total wall time:   8m 52s
  Impulse FP iters last/mean/max: 18 / 18.793 / 23
  Approx impulse solves/step:     18.793
  Impulse start cache hits/direct: 1999 / 1
  Impulse global drift P/H:       1.480523e-8 / 2.175327e-2
  Impulse per-body max drift P/H: 3.577344e-8 / 8.744323e-3
  CPU cores:         256 available, 8 Rayon worker thread(s)
  Started:           2026-06-24 02:14:39
  Finished:          2026-06-24 02:23:31
  Output file:       /work/e643/e643/shared/multi_ellip/studies/two_body_paper_sweeps/runs/ellipsoid_1_0p8_0p6/ellipsoid_1_0p8_0p6_rho0p1_E4_sep8_run04_impulse_noproj/multiple_body_complete.dat
================================================
