
================ Simulation setup ================
  Run label:         /work/e643/e643/shared/multi_ellip/studies/two_body_paper_sweeps/runs/ellipsoid_1_0p8_0p6/ellipsoid_1_0p8_0p6_rho0p3_E0p55_sep5_run01_impulse_noproj/
  Started:           2026-06-22 19:40:05
  Input file:        /work/e643/e643/shared/multi_ellip/studies/two_body_paper_sweeps/runs/ellipsoid_1_0p8_0p6/ellipsoid_1_0p8_0p6_rho0p3_E0p55_sep5_run01_impulse_noproj/input.txt
  Output file:       /work/e643/e643/shared/multi_ellip/studies/two_body_paper_sweeps/runs/ellipsoid_1_0p8_0p6/ellipsoid_1_0p8_0p6_rho0p3_E0p55_sep5_run01_impulse_noproj/multiple_body_complete.dat
  Bodies:            2
  Fluid density:     1
  Mesh:              ndiv 2 -> 256 triangles / 516 nodes
  Simulated time:    0 -> 100  (dt = 0.05, ~2000 steps)
  Output cadence:    every 1 step(s)
  Output rows:       ~2001
  Progress cadence:  every 100 step(s)
  CPU cores:         256 available, 8 Rayon worker thread(s)
  Strong coupling:   disabled
  Impulse scheme:    enabled
  Hamiltonian step:  disabled
  Hamiltonian midpt: disabled
  Variational step:  disabled
  Energy projection: disabled
  Projection particular metric: Euclidean
  Fluid KE gradient: disabled  (eps = 0.001, scale = 1, linear = 1, angular = 1)
  Fluid KE discrete gradient: disabled
  Impulse pair metric correction: disabled  (mode = pair discrete-gradient, cutoff = all pairs, inner/outer = 0/0, eps = 0.001, linear scale = 1, angular scale = 0)
  Impulse metric correction: disabled  (internal load constraint = disabled)
  Impulse variational defect probe: disabled
  Impulse quadratic pressure: disabled  (scale = 1)
  Added-mass stab:   disabled
  Exact BEM geometry: disabled
  Exact singular BEM: disabled
  Legacy singular SLP diagnostic: disabled
  Phi-dot blend:     0 (off)

  Solver guidance:
    - Strong coupling: use for stiff close-coupled runs; slower but more implicit.
    - Impulse scheme: use when impulse/momentum conservation or KE drift is the focus. Recommended.
    - Added-mass stab: use for higher mesh counts (ndiv > 3) to preserve stability - deprecated.
================================================
Solver starting - good luck!

Initial state:
  Body  1
    density:          0.300000
    shape axes ratio: (1.000000, 0.800000, 0.600000)
    initial KE ratio: 0.550000
    position:         (-2.500000, 0.000000, 0.000000)
    velocity:         (-3.851918, 2.350536, -3.369705)
    angular velocity: (0.784807, 6.233261, -0.094642)
    orientation:      (w=0.447214, i=0.894427, j=0.000000, k=0.000000)
  Body  2
    density:          0.300000
    shape axes ratio: (1.000000, 0.800000, 0.600000)
    initial KE ratio: 0.550000
    position:         (2.500000, 0.000000, 0.000000)
    velocity:         (-3.637003, 2.219389, -3.181694)
    angular velocity: (-4.204522, 4.535418, 1.109232)
    orientation:      (w=0.707107, i=0.000000, j=0.707107, k=0.000000)

Preparing first step: implicit scheme, no bootstrap passes required.
First step may take longer than later steps.

First step completed in 0.352 s.

Step   100/2000    5.0% | t 5.000 | ETA 5m 51s | step 0.21s | KE 138.0773 | drift +2.69% | fluid 74.5690 | solid 63.5083
  Impulse FP iterations last/mean/max 16/14.83/16
Step   200/2000   10.0% | t 10.000 | ETA 5m 44s | step 0.19s | KE 138.2851 | drift +2.84% | fluid 71.2336 | solid 67.0515
  Impulse FP iterations last/mean/max 14/14.78/16
Step   300/2000   15.0% | t 15.000 | ETA 5m 27s | step 0.18s | KE 139.4662 | drift +3.72% | fluid 75.4390 | solid 64.0272
  Impulse FP iterations last/mean/max 13/14.67/16
Step   400/2000   20.0% | t 20.000 | ETA 5m 10s | step 0.21s | KE 139.0006 | drift +3.37% | fluid 71.6091 | solid 67.3915
  Impulse FP iterations last/mean/max 15/14.69/16
Step   500/2000   25.0% | t 25.000 | ETA 4m 52s | step 0.18s | KE 139.7084 | drift +3.90% | fluid 75.8598 | solid 63.8486
  Impulse FP iterations last/mean/max 13/14.68/16
Step   600/2000   30.0% | t 30.000 | ETA 4m 33s | step 0.19s | KE 138.8129 | drift +3.23% | fluid 74.5739 | solid 64.2390
  Impulse FP iterations last/mean/max 14/14.66/16
Step   700/2000   35.0% | t 35.000 | ETA 4m 13s | step 0.18s | KE 139.4628 | drift +3.72% | fluid 73.9989 | solid 65.4639
  Impulse FP iterations last/mean/max 14/14.67/16
Step   800/2000   40.0% | t 40.000 | ETA 3m 54s | step 0.21s | KE 138.6254 | drift +3.09% | fluid 70.0661 | solid 68.5593
  Impulse FP iterations last/mean/max 15/14.66/16
Step   900/2000   45.0% | t 45.000 | ETA 3m 34s | step 0.19s | KE 139.5047 | drift +3.75% | fluid 75.6218 | solid 63.8829
  Impulse FP iterations last/mean/max 14/14.65/16
Step  1000/2000   50.0% | t 50.000 | ETA 3m 14s | step 0.21s | KE 139.1584 | drift +3.49% | fluid 70.3891 | solid 68.7693
  Impulse FP iterations last/mean/max 15/14.65/16
Step  1100/2000   55.0% | t 55.000 | ETA 2m 55s | step 0.19s | KE 138.8178 | drift +3.24% | fluid 75.0575 | solid 63.7603
  Impulse FP iterations last/mean/max 15/14.66/16
Step  1200/2000   60.0% | t 60.000 | ETA 2m 35s | step 0.19s | KE 139.4072 | drift +3.67% | fluid 79.0282 | solid 60.3790
  Impulse FP iterations last/mean/max 14/14.65/16
Step  1300/2000   65.0% | t 65.000 | ETA 2m 15s | step 0.18s | KE 138.9032 | drift +3.30% | fluid 74.8840 | solid 64.0192
  Impulse FP iterations last/mean/max 14/14.63/17
Step  1400/2000   70.0% | t 70.000 | ETA 1m 56s | step 0.19s | KE 138.7420 | drift +3.18% | fluid 77.1422 | solid 61.5998
  Impulse FP iterations last/mean/max 16/14.63/17
Step  1500/2000   75.0% | t 75.000 | ETA 1m 36s | step 0.17s | KE 138.2765 | drift +2.83% | fluid 74.3918 | solid 63.8847
  Impulse FP iterations last/mean/max 15/14.63/17
Step  1600/2000   80.0% | t 80.000 | ETA 1m 15s | step 0.15s | KE 139.0635 | drift +3.42% | fluid 73.1096 | solid 65.9539
  Impulse FP iterations last/mean/max 15/14.63/17
Step  1700/2000   85.0% | t 85.000 | ETA 56s | step 0.13s | KE 139.0339 | drift +3.40% | fluid 75.6091 | solid 63.4247
  Impulse FP iterations last/mean/max 14/14.63/17
Step  1800/2000   90.0% | t 90.000 | ETA 36s | step 0.14s | KE 138.5860 | drift +3.06% | fluid 70.6163 | solid 67.9697
  Impulse FP iterations last/mean/max 15/14.63/17
Step  1900/2000   95.0% | t 95.000 | ETA 18s | step 0.13s | KE 138.8823 | drift +3.28% | fluid 71.0199 | solid 67.8623
  Impulse FP iterations last/mean/max 14/14.62/17
Solver finished successfully - good job!
Results saved successfully.

================== Run summary ==================
  Bodies:            2
  Triangles / nodes: 256 / 516
  Timesteps:         2000  (dt = 0.05)
  Simulated time:    0 -> 100
  First-step setup:  0.352 s
  Mean time/step:    0.1796 s  (excl. first step)
  Total wall time:   5m 59s
  Impulse FP iters last/mean/max: 14 / 14.614 / 17
  Approx impulse solves/step:     14.615
  Impulse start cache hits/direct: 1999 / 1
  Impulse global drift P/H:       1.634255e-8 / 5.519370e-1
  Impulse per-body max drift P/H: 2.230269e-8 / 3.736784e-2
  CPU cores:         256 available, 8 Rayon worker thread(s)
  Started:           2026-06-22 19:40:05
  Finished:          2026-06-22 19:46:05
  Output file:       /work/e643/e643/shared/multi_ellip/studies/two_body_paper_sweeps/runs/ellipsoid_1_0p8_0p6/ellipsoid_1_0p8_0p6_rho0p3_E0p55_sep5_run01_impulse_noproj/multiple_body_complete.dat
================================================
