
================ Simulation setup ================
  Run label:         /work/e643/e643/shared/multi_ellip/studies/departing_sphericity_sweep/runs/triaxial/heterogeneous_sphere/triaxial_heterogeneous_sphere_eps1_rho1_E0p5_sep8_run05_impulse_noproj/
  Started:           2026-06-24 02:52:06
  Input file:        /work/e643/e643/shared/multi_ellip/studies/departing_sphericity_sweep/runs/triaxial/heterogeneous_sphere/triaxial_heterogeneous_sphere_eps1_rho1_E0p5_sep8_run05_impulse_noproj/input.txt
  Output file:       /work/e643/e643/shared/multi_ellip/studies/departing_sphericity_sweep/runs/triaxial/heterogeneous_sphere/triaxial_heterogeneous_sphere_eps1_rho1_E0p5_sep8_run05_impulse_noproj/multiple_body_complete.dat
  Bodies:            2
  Fluid density:     1
  Mesh:              ndiv 2 -> 256 triangles / 516 nodes
  Simulated time:    0 -> 100  (dt = 0.05, ~2000 steps)
  Output cadence:    every 1 step(s)
  Output rows:       ~2001
  Progress cadence:  every 100 step(s)
  CPU cores:         256 available, 8 Rayon worker thread(s)
  Strong coupling:   disabled
  Impulse scheme:    enabled
  Hamiltonian step:  disabled
  Hamiltonian midpt: disabled
  Variational step:  disabled
  Energy projection: disabled
  Projection particular metric: Euclidean
  Fluid KE gradient: disabled  (eps = 0.001, scale = 1, linear = 1, angular = 1)
  Fluid KE discrete gradient: disabled
  Impulse pair metric correction: disabled  (mode = pair discrete-gradient, cutoff = all pairs, inner/outer = 0/0, eps = 0.001, linear scale = 1, angular scale = 0)
  Impulse metric correction: disabled  (internal load constraint = disabled)
  Impulse variational defect probe: disabled
  Impulse quadratic pressure: disabled  (scale = 1)
  Added-mass stab:   disabled
  Exact BEM geometry: disabled
  Exact singular BEM: disabled
  Legacy singular SLP diagnostic: disabled
  Phi-dot blend:     0 (off)

  Solver guidance:
    - Strong coupling: use for stiff close-coupled runs; slower but more implicit.
    - Impulse scheme: use when impulse/momentum conservation or KE drift is the focus. Recommended.
    - Added-mass stab: use for higher mesh counts (ndiv > 3) to preserve stability - deprecated.
================================================
Solver starting - good luck!

Initial state:
  Body  1
    density:          1.000000
    shape axes ratio: (1.000000, 0.500000, 0.250000)
    initial KE ratio: 0.500000
    position:         (-4.000000, 0.000000, 0.000000)
    velocity:         (-0.882263, -3.325886, 4.603153)
    angular velocity: (5.532534, 0.219956, -2.970035)
    orientation:      (w=-0.055449, i=0.457527, j=-0.672876, k=-0.578647)
  Body  2
    density:          1.000000
    shape axes ratio: (1.000000, 1.000000, 1.000000)
    initial KE ratio: 0.500000
    position:         (4.000000, 0.000000, 0.000000)
    velocity:         (-0.862731, -3.252258, 4.501249)
    angular velocity: (3.834967, 4.672135, 1.715400)
    orientation:      (w=-0.615336, i=-0.712586, j=0.127490, k=-0.311975)

Preparing first step: implicit scheme, no bootstrap passes required.
First step may take longer than later steps.

First step completed in 0.279 s.

Step   100/2000    5.0% | t 5.000 | ETA 5m 55s | step 0.20s | KE 405.4675 | drift -0.84% | fluid 92.1417 | solid 313.3259
  Impulse FP iterations last/mean/max 13/12.83/14
Step   200/2000   10.0% | t 10.000 | ETA 5m 23s | step 0.18s | KE 405.3724 | drift -0.86% | fluid 166.9743 | solid 238.3981
  Impulse FP iterations last/mean/max 12/12.26/14
Step   300/2000   15.0% | t 15.000 | ETA 5m 0s | step 0.19s | KE 406.9343 | drift -0.48% | fluid 90.4262 | solid 316.5081
  Impulse FP iterations last/mean/max 12/11.97/14
Step   400/2000   20.0% | t 20.000 | ETA 4m 40s | step 0.19s | KE 406.2389 | drift -0.65% | fluid 157.3738 | solid 248.8650
  Impulse FP iterations last/mean/max 12/11.84/14
Step   500/2000   25.0% | t 25.000 | ETA 4m 21s | step 0.18s | KE 407.4182 | drift -0.36% | fluid 92.0662 | solid 315.3520
  Impulse FP iterations last/mean/max 12/11.75/14
Step   600/2000   30.0% | t 30.000 | ETA 4m 2s | step 0.18s | KE 406.0045 | drift -0.71% | fluid 163.5835 | solid 242.4210
  Impulse FP iterations last/mean/max 11/11.69/14
Step   700/2000   35.0% | t 35.000 | ETA 3m 43s | step 0.16s | KE 407.7370 | drift -0.29% | fluid 97.0252 | solid 310.7118
  Impulse FP iterations last/mean/max 11/11.64/14
Step   800/2000   40.0% | t 40.000 | ETA 3m 26s | step 0.18s | KE 405.2841 | drift -0.89% | fluid 169.8804 | solid 235.4036
  Impulse FP iterations last/mean/max 12/11.62/14
Step   900/2000   45.0% | t 45.000 | ETA 3m 8s | step 0.16s | KE 407.0379 | drift -0.46% | fluid 99.8058 | solid 307.2321
  Impulse FP iterations last/mean/max 12/11.59/14
Step  1000/2000   50.0% | t 50.000 | ETA 2m 51s | step 0.17s | KE 406.6566 | drift -0.55% | fluid 146.9550 | solid 259.7016
  Impulse FP iterations last/mean/max 12/11.57/14
Step  1100/2000   55.0% | t 55.000 | ETA 2m 33s | step 0.16s | KE 407.4343 | drift -0.36% | fluid 102.2895 | solid 305.1448
  Impulse FP iterations last/mean/max 11/11.56/14
Step  1200/2000   60.0% | t 60.000 | ETA 2m 16s | step 0.18s | KE 406.4000 | drift -0.61% | fluid 149.6673 | solid 256.7326
  Impulse FP iterations last/mean/max 12/11.55/14
Step  1300/2000   65.0% | t 65.000 | ETA 1m 59s | step 0.17s | KE 407.4697 | drift -0.35% | fluid 109.0458 | solid 298.4239
  Impulse FP iterations last/mean/max 11/11.54/14
Step  1400/2000   70.0% | t 70.000 | ETA 1m 42s | step 0.17s | KE 405.3597 | drift -0.87% | fluid 156.8819 | solid 248.4778
  Impulse FP iterations last/mean/max 12/11.53/14
Step  1500/2000   75.0% | t 75.000 | ETA 1m 25s | step 0.18s | KE 406.6478 | drift -0.55% | fluid 119.0906 | solid 287.5572
  Impulse FP iterations last/mean/max 11/11.52/14
Step  1600/2000   80.0% | t 80.000 | ETA 1m 8s | step 0.19s | KE 406.9967 | drift -0.47% | fluid 132.5877 | solid 274.4090
  Impulse FP iterations last/mean/max 13/11.51/14
Step  1700/2000   85.0% | t 85.000 | ETA 51s | step 0.16s | KE 407.1979 | drift -0.42% | fluid 118.8571 | solid 288.3408
  Impulse FP iterations last/mean/max 11/11.51/14
Step  1800/2000   90.0% | t 90.000 | ETA 34s | step 0.15s | KE 406.8680 | drift -0.50% | fluid 130.5317 | solid 276.3362
  Impulse FP iterations last/mean/max 11/11.51/14
Step  1900/2000   95.0% | t 95.000 | ETA 17s | step 0.16s | KE 406.9729 | drift -0.47% | fluid 126.4042 | solid 280.5687
  Impulse FP iterations last/mean/max 11/11.50/14
Solver finished successfully - good job!
Results saved successfully.

================== Run summary ==================
  Bodies:            2
  Triangles / nodes: 256 / 516
  Timesteps:         2000  (dt = 0.05)
  Simulated time:    0 -> 100
  First-step setup:  0.279 s
  Mean time/step:    0.1689 s  (excl. first step)
  Total wall time:   5m 37s
  Impulse FP iters last/mean/max: 11 / 11.494 / 14
  Approx impulse solves/step:     11.495
  Impulse start cache hits/direct: 1999 / 1
  Impulse global drift P/H:       2.073884e-9 / 1.970346e-2
  Impulse per-body max drift P/H: 5.288124e-9 / 6.650708e-3
  CPU cores:         256 available, 8 Rayon worker thread(s)
  Started:           2026-06-24 02:52:06
  Finished:          2026-06-24 02:57:45
  Output file:       /work/e643/e643/shared/multi_ellip/studies/departing_sphericity_sweep/runs/triaxial/heterogeneous_sphere/triaxial_heterogeneous_sphere_eps1_rho1_E0p5_sep8_run05_impulse_noproj/multiple_body_complete.dat
================================================
