
================ Simulation setup ================
  Run label:         /work/e643/e643/shared/multi_ellip/studies/two_body_paper_sweeps/runs/ellipsoid_1_0p8_0p6/ellipsoid_1_0p8_0p6_rho1_E30_sep11_run04_impulse_noproj/
  Started:           2026-06-24 01:44:20
  Input file:        /work/e643/e643/shared/multi_ellip/studies/two_body_paper_sweeps/runs/ellipsoid_1_0p8_0p6/ellipsoid_1_0p8_0p6_rho1_E30_sep11_run04_impulse_noproj/input.txt
  Output file:       /work/e643/e643/shared/multi_ellip/studies/two_body_paper_sweeps/runs/ellipsoid_1_0p8_0p6/ellipsoid_1_0p8_0p6_rho1_E30_sep11_run04_impulse_noproj/multiple_body_complete.dat
  Bodies:            2
  Fluid density:     1
  Mesh:              ndiv 2 -> 256 triangles / 516 nodes
  Simulated time:    0 -> 100  (dt = 0.05, ~2000 steps)
  Output cadence:    every 1 step(s)
  Output rows:       ~2001
  Progress cadence:  every 100 step(s)
  CPU cores:         256 available, 8 Rayon worker thread(s)
  Strong coupling:   disabled
  Impulse scheme:    enabled
  Hamiltonian step:  disabled
  Hamiltonian midpt: disabled
  Variational step:  disabled
  Energy projection: disabled
  Projection particular metric: Euclidean
  Fluid KE gradient: disabled  (eps = 0.001, scale = 1, linear = 1, angular = 1)
  Fluid KE discrete gradient: disabled
  Impulse pair metric correction: disabled  (mode = pair discrete-gradient, cutoff = all pairs, inner/outer = 0/0, eps = 0.001, linear scale = 1, angular scale = 0)
  Impulse metric correction: disabled  (internal load constraint = disabled)
  Impulse variational defect probe: disabled
  Impulse quadratic pressure: disabled  (scale = 1)
  Added-mass stab:   disabled
  Exact BEM geometry: disabled
  Exact singular BEM: disabled
  Legacy singular SLP diagnostic: disabled
  Phi-dot blend:     0 (off)

  Solver guidance:
    - Strong coupling: use for stiff close-coupled runs; slower but more implicit.
    - Impulse scheme: use when impulse/momentum conservation or KE drift is the focus. Recommended.
    - Added-mass stab: use for higher mesh counts (ndiv > 3) to preserve stability - deprecated.
================================================
Solver starting - good luck!

Initial state:
  Body  1
    density:          1.000000
    shape axes ratio: (1.000000, 0.800000, 0.600000)
    initial KE ratio: 30.000000
    position:         (-5.500000, 0.000000, 0.000000)
    velocity:         (-0.447508, 0.276037, -0.451229)
    angular velocity: (5.455216, -2.355045, 2.042743)
    orientation:      (w=0.230489, i=0.153126, j=0.146616, k=0.949700)
  Body  2
    density:          1.000000
    shape axes ratio: (1.000000, 0.800000, 0.600000)
    initial KE ratio: 30.000000
    position:         (5.500000, 0.000000, 0.000000)
    velocity:         (-0.533336, 0.328978, -0.537771)
    angular velocity: (-1.045301, -2.189583, -5.795817)
    orientation:      (w=0.145289, i=0.534262, j=0.832661, k=0.011450)

Preparing first step: implicit scheme, no bootstrap passes required.
First step may take longer than later steps.

First step completed in 0.333 s.

Step   100/2000    5.0% | t 5.000 | ETA 4m 51s | step 0.14s | KE 82.3723 | drift -0.06% | fluid 4.6037 | solid 77.7686
  Impulse FP iterations last/mean/max 10/10.77/11
Step   200/2000   10.0% | t 10.000 | ETA 4m 34s | step 0.15s | KE 82.3217 | drift -0.12% | fluid 5.6355 | solid 76.6862
  Impulse FP iterations last/mean/max 11/10.73/11
Step   300/2000   15.0% | t 15.000 | ETA 4m 16s | step 0.13s | KE 82.2752 | drift -0.18% | fluid 5.9771 | solid 76.2981
  Impulse FP iterations last/mean/max 10/10.74/11
Step   400/2000   20.0% | t 20.000 | ETA 3m 54s | step 0.14s | KE 82.2343 | drift -0.23% | fluid 5.6576 | solid 76.5767
  Impulse FP iterations last/mean/max 11/10.73/11
Step   500/2000   25.0% | t 25.000 | ETA 3m 35s | step 0.12s | KE 82.2027 | drift -0.27% | fluid 7.0234 | solid 75.1793
  Impulse FP iterations last/mean/max 10/10.73/11
Step   600/2000   30.0% | t 30.000 | ETA 3m 23s | step 0.15s | KE 82.1873 | drift -0.28% | fluid 6.4019 | solid 75.7853
  Impulse FP iterations last/mean/max 11/10.74/11
Step   700/2000   35.0% | t 35.000 | ETA 3m 9s | step 0.15s | KE 82.1863 | drift -0.29% | fluid 6.6086 | solid 75.5778
  Impulse FP iterations last/mean/max 11/10.71/11
Step   800/2000   40.0% | t 40.000 | ETA 2m 55s | step 0.17s | KE 82.2121 | drift -0.25% | fluid 6.9131 | solid 75.2990
  Impulse FP iterations last/mean/max 11/10.72/11
Step   900/2000   45.0% | t 45.000 | ETA 2m 41s | step 0.15s | KE 82.2669 | drift -0.19% | fluid 5.5753 | solid 76.6916
  Impulse FP iterations last/mean/max 10/10.71/11
Step  1000/2000   50.0% | t 50.000 | ETA 2m 27s | step 0.17s | KE 82.3515 | drift -0.08% | fluid 6.1838 | solid 76.1677
  Impulse FP iterations last/mean/max 11/10.71/11
Step  1100/2000   55.0% | t 55.000 | ETA 2m 12s | step 0.15s | KE 82.4713 | drift +0.06% | fluid 5.5360 | solid 76.9353
  Impulse FP iterations last/mean/max 10/10.71/11
Step  1200/2000   60.0% | t 60.000 | ETA 1m 58s | step 0.16s | KE 82.6140 | drift +0.23% | fluid 4.8018 | solid 77.8121
  Impulse FP iterations last/mean/max 11/10.71/11
Step  1300/2000   65.0% | t 65.000 | ETA 1m 44s | step 0.16s | KE 82.7762 | drift +0.43% | fluid 5.5014 | solid 77.2748
  Impulse FP iterations last/mean/max 11/10.73/11
Step  1400/2000   70.0% | t 70.000 | ETA 1m 29s | step 0.14s | KE 82.9505 | drift +0.64% | fluid 4.4646 | solid 78.4859
  Impulse FP iterations last/mean/max 10/10.73/11
Step  1500/2000   75.0% | t 75.000 | ETA 1m 14s | step 0.15s | KE 83.1141 | drift +0.84% | fluid 4.9263 | solid 78.1878
  Impulse FP iterations last/mean/max 11/10.73/11
Step  1600/2000   80.0% | t 80.000 | ETA 59s | step 0.16s | KE 83.2575 | drift +1.01% | fluid 5.7401 | solid 77.5174
  Impulse FP iterations last/mean/max 11/10.73/11
Step  1700/2000   85.0% | t 85.000 | ETA 44s | step 0.16s | KE 83.3717 | drift +1.15% | fluid 5.2121 | solid 78.1596
  Impulse FP iterations last/mean/max 11/10.74/11
Step  1800/2000   90.0% | t 90.000 | ETA 29s | step 0.14s | KE 83.4542 | drift +1.25% | fluid 6.5645 | solid 76.8897
  Impulse FP iterations last/mean/max 11/10.74/11
Step  1900/2000   95.0% | t 95.000 | ETA 14s | step 0.15s | KE 83.5203 | drift +1.33% | fluid 6.6931 | solid 76.8272
  Impulse FP iterations last/mean/max 10/10.74/11
Solver finished successfully - good job!
Results saved successfully.

================== Run summary ==================
  Bodies:            2
  Triangles / nodes: 256 / 516
  Timesteps:         2000  (dt = 0.05)
  Simulated time:    0 -> 100
  First-step setup:  0.333 s
  Mean time/step:    0.1499 s  (excl. first step)
  Total wall time:   4m 59s
  Impulse FP iters last/mean/max: 11 / 10.750 / 11
  Approx impulse solves/step:     10.751
  Impulse start cache hits/direct: 1999 / 1
  Impulse global drift P/H:       1.571781e-8 / 2.750078e-2
  Impulse per-body max drift P/H: 1.970740e-8 / 1.270109e-2
  CPU cores:         256 available, 8 Rayon worker thread(s)
  Started:           2026-06-24 01:44:20
  Finished:          2026-06-24 01:49:20
  Output file:       /work/e643/e643/shared/multi_ellip/studies/two_body_paper_sweeps/runs/ellipsoid_1_0p8_0p6/ellipsoid_1_0p8_0p6_rho1_E30_sep11_run04_impulse_noproj/multiple_body_complete.dat
================================================
