
================ Simulation setup ================
  Run label:         /work/e643/e643/shared/multi_ellip/studies/departing_sphericity_sweep/runs/triaxial/homogeneous/triaxial_homogeneous_eps0p3_rho1_E0p5_sep8_run04_impulse_noproj/
  Started:           2026-06-24 02:30:21
  Input file:        /work/e643/e643/shared/multi_ellip/studies/departing_sphericity_sweep/runs/triaxial/homogeneous/triaxial_homogeneous_eps0p3_rho1_E0p5_sep8_run04_impulse_noproj/input.txt
  Output file:       /work/e643/e643/shared/multi_ellip/studies/departing_sphericity_sweep/runs/triaxial/homogeneous/triaxial_homogeneous_eps0p3_rho1_E0p5_sep8_run04_impulse_noproj/multiple_body_complete.dat
  Bodies:            2
  Fluid density:     1
  Mesh:              ndiv 2 -> 256 triangles / 516 nodes
  Simulated time:    0 -> 100  (dt = 0.05, ~2000 steps)
  Output cadence:    every 1 step(s)
  Output rows:       ~2001
  Progress cadence:  every 100 step(s)
  CPU cores:         256 available, 8 Rayon worker thread(s)
  Strong coupling:   disabled
  Impulse scheme:    enabled
  Hamiltonian step:  disabled
  Hamiltonian midpt: disabled
  Variational step:  disabled
  Energy projection: disabled
  Projection particular metric: Euclidean
  Fluid KE gradient: disabled  (eps = 0.001, scale = 1, linear = 1, angular = 1)
  Fluid KE discrete gradient: disabled
  Impulse pair metric correction: disabled  (mode = pair discrete-gradient, cutoff = all pairs, inner/outer = 0/0, eps = 0.001, linear scale = 1, angular scale = 0)
  Impulse metric correction: disabled  (internal load constraint = disabled)
  Impulse variational defect probe: disabled
  Impulse quadratic pressure: disabled  (scale = 1)
  Added-mass stab:   disabled
  Exact BEM geometry: disabled
  Exact singular BEM: disabled
  Legacy singular SLP diagnostic: disabled
  Phi-dot blend:     0 (off)

  Solver guidance:
    - Strong coupling: use for stiff close-coupled runs; slower but more implicit.
    - Impulse scheme: use when impulse/momentum conservation or KE drift is the focus. Recommended.
    - Added-mass stab: use for higher mesh counts (ndiv > 3) to preserve stability - deprecated.
================================================
Solver starting - good luck!

Initial state:
  Body  1
    density:          1.000000
    shape axes ratio: (1.000000, 0.769231, 0.591716)
    initial KE ratio: 0.500000
    position:         (-4.000000, 0.000000, 0.000000)
    velocity:         (4.726340, 2.741679, -3.364827)
    angular velocity: (0.923314, 2.382614, -5.740127)
    orientation:      (w=0.873006, i=-0.440742, j=0.181089, k=-0.103995)
  Body  2
    density:          1.000000
    shape axes ratio: (1.000000, 0.769231, 0.591716)
    initial KE ratio: 0.500000
    position:         (4.000000, 0.000000, 0.000000)
    velocity:         (4.275306, 2.480041, -3.043722)
    angular velocity: (4.362241, -1.614947, -4.223887)
    orientation:      (w=-0.294374, i=0.201129, j=-0.245591, k=-0.901430)

Preparing first step: implicit scheme, no bootstrap passes required.
First step may take longer than later steps.

First step completed in 0.314 s.

Step   100/2000    5.0% | t 5.000 | ETA 5m 12s | step 0.16s | KE 331.7691 | drift +1.52% | fluid 94.3647 | solid 237.4044
  Impulse FP iterations last/mean/max 11/11.48/12
Step   200/2000   10.0% | t 10.000 | ETA 4m 58s | step 0.17s | KE 331.9534 | drift +1.58% | fluid 87.5877 | solid 244.3657
  Impulse FP iterations last/mean/max 12/11.49/12
Step   300/2000   15.0% | t 15.000 | ETA 4m 40s | step 0.14s | KE 331.8343 | drift +1.54% | fluid 79.0812 | solid 252.7531
  Impulse FP iterations last/mean/max 11/11.43/12
Step   400/2000   20.0% | t 20.000 | ETA 4m 23s | step 0.15s | KE 331.5781 | drift +1.46% | fluid 92.9058 | solid 238.6723
  Impulse FP iterations last/mean/max 11/11.42/12
Step   500/2000   25.0% | t 25.000 | ETA 4m 6s | step 0.17s | KE 332.2551 | drift +1.67% | fluid 85.2216 | solid 247.0335
  Impulse FP iterations last/mean/max 12/11.42/12
Step   600/2000   30.0% | t 30.000 | ETA 3m 49s | step 0.17s | KE 331.4694 | drift +1.43% | fluid 90.9234 | solid 240.5459
  Impulse FP iterations last/mean/max 12/11.41/12
Step   700/2000   35.0% | t 35.000 | ETA 3m 32s | step 0.16s | KE 332.2553 | drift +1.67% | fluid 82.5667 | solid 249.6886
  Impulse FP iterations last/mean/max 11/11.39/13
Step   800/2000   40.0% | t 40.000 | ETA 3m 16s | step 0.16s | KE 332.0426 | drift +1.61% | fluid 82.0861 | solid 249.9565
  Impulse FP iterations last/mean/max 11/11.39/13
Step   900/2000   45.0% | t 45.000 | ETA 2m 59s | step 0.15s | KE 331.8340 | drift +1.54% | fluid 89.5564 | solid 242.2775
  Impulse FP iterations last/mean/max 11/11.39/13
Step  1000/2000   50.0% | t 50.000 | ETA 2m 43s | step 0.18s | KE 332.5153 | drift +1.75% | fluid 92.6812 | solid 239.8341
  Impulse FP iterations last/mean/max 12/11.40/13
Step  1100/2000   55.0% | t 55.000 | ETA 2m 27s | step 0.18s | KE 332.0268 | drift +1.60% | fluid 88.2070 | solid 243.8198
  Impulse FP iterations last/mean/max 12/11.41/13
Step  1200/2000   60.0% | t 60.000 | ETA 2m 10s | step 0.15s | KE 332.1434 | drift +1.64% | fluid 82.8284 | solid 249.3150
  Impulse FP iterations last/mean/max 11/11.41/13
Step  1300/2000   65.0% | t 65.000 | ETA 1m 54s | step 0.16s | KE 331.6136 | drift +1.47% | fluid 89.0153 | solid 242.5982
  Impulse FP iterations last/mean/max 11/11.41/13
Step  1400/2000   70.0% | t 70.000 | ETA 1m 37s | step 0.14s | KE 331.1969 | drift +1.35% | fluid 90.3705 | solid 240.8264
  Impulse FP iterations last/mean/max 11/11.41/13
Step  1500/2000   75.0% | t 75.000 | ETA 1m 20s | step 0.15s | KE 331.9266 | drift +1.57% | fluid 81.5008 | solid 250.4259
  Impulse FP iterations last/mean/max 12/11.41/13
Step  1600/2000   80.0% | t 80.000 | ETA 1m 4s | step 0.14s | KE 331.8546 | drift +1.55% | fluid 92.7121 | solid 239.1425
  Impulse FP iterations last/mean/max 12/11.42/13
Step  1700/2000   85.0% | t 85.000 | ETA 47s | step 0.13s | KE 331.4145 | drift +1.41% | fluid 96.4613 | solid 234.9532
  Impulse FP iterations last/mean/max 11/11.42/13
Step  1800/2000   90.0% | t 90.000 | ETA 31s | step 0.14s | KE 332.0336 | drift +1.60% | fluid 87.9544 | solid 244.0792
  Impulse FP iterations last/mean/max 11/11.42/13
Step  1900/2000   95.0% | t 95.000 | ETA 15s | step 0.13s | KE 331.4774 | drift +1.43% | fluid 91.5109 | solid 239.9665
  Impulse FP iterations last/mean/max 12/11.42/13
Solver finished successfully - good job!
Results saved successfully.

================== Run summary ==================
  Bodies:            2
  Triangles / nodes: 256 / 516
  Timesteps:         2000  (dt = 0.05)
  Simulated time:    0 -> 100
  First-step setup:  0.314 s
  Mean time/step:    0.1539 s  (excl. first step)
  Total wall time:   5m 7s
  Impulse FP iters last/mean/max: 12 / 11.421 / 13
  Approx impulse solves/step:     11.422
  Impulse start cache hits/direct: 1999 / 1
  Impulse global drift P/H:       4.612969e-9 / 2.411354e-2
  Impulse per-body max drift P/H: 7.025711e-9 / 8.488953e-3
  CPU cores:         256 available, 8 Rayon worker thread(s)
  Started:           2026-06-24 02:30:21
  Finished:          2026-06-24 02:35:29
  Output file:       /work/e643/e643/shared/multi_ellip/studies/departing_sphericity_sweep/runs/triaxial/homogeneous/triaxial_homogeneous_eps0p3_rho1_E0p5_sep8_run04_impulse_noproj/multiple_body_complete.dat
================================================
