
================ Simulation setup ================
  Run label:         /work/e643/e643/shared/multi_ellip/studies/two_body_paper_sweeps/runs/spheroid_1_0p7_0p7/spheroid_1_0p7_0p7_rho1_E30_sep8_run04_impulse_noproj/
  Started:           2026-06-24 01:39:25
  Input file:        /work/e643/e643/shared/multi_ellip/studies/two_body_paper_sweeps/runs/spheroid_1_0p7_0p7/spheroid_1_0p7_0p7_rho1_E30_sep8_run04_impulse_noproj/input.txt
  Output file:       /work/e643/e643/shared/multi_ellip/studies/two_body_paper_sweeps/runs/spheroid_1_0p7_0p7/spheroid_1_0p7_0p7_rho1_E30_sep8_run04_impulse_noproj/multiple_body_complete.dat
  Bodies:            2
  Fluid density:     1
  Mesh:              ndiv 2 -> 256 triangles / 516 nodes
  Simulated time:    0 -> 100  (dt = 0.05, ~2000 steps)
  Output cadence:    every 1 step(s)
  Output rows:       ~2001
  Progress cadence:  every 100 step(s)
  CPU cores:         256 available, 8 Rayon worker thread(s)
  Strong coupling:   disabled
  Impulse scheme:    enabled
  Hamiltonian step:  disabled
  Hamiltonian midpt: disabled
  Variational step:  disabled
  Energy projection: disabled
  Projection particular metric: Euclidean
  Fluid KE gradient: disabled  (eps = 0.001, scale = 1, linear = 1, angular = 1)
  Fluid KE discrete gradient: disabled
  Impulse pair metric correction: disabled  (mode = pair discrete-gradient, cutoff = all pairs, inner/outer = 0/0, eps = 0.001, linear scale = 1, angular scale = 0)
  Impulse metric correction: disabled  (internal load constraint = disabled)
  Impulse variational defect probe: disabled
  Impulse quadratic pressure: disabled  (scale = 1)
  Added-mass stab:   disabled
  Exact BEM geometry: disabled
  Exact singular BEM: disabled
  Legacy singular SLP diagnostic: disabled
  Phi-dot blend:     0 (off)

  Solver guidance:
    - Strong coupling: use for stiff close-coupled runs; slower but more implicit.
    - Impulse scheme: use when impulse/momentum conservation or KE drift is the focus. Recommended.
    - Added-mass stab: use for higher mesh counts (ndiv > 3) to preserve stability - deprecated.
================================================
Solver starting - good luck!

Initial state:
  Body  1
    density:          1.000000
    shape axes ratio: (1.000000, 0.700000, 0.700000)
    initial KE ratio: 30.000000
    position:         (-4.000000, 0.000000, 0.000000)
    velocity:         (0.391483, -0.048215, 0.582961)
    angular velocity: (-4.977250, 3.546634, 1.458349)
    orientation:      (w=0.109511, i=0.364243, j=0.912380, k=0.151319)
  Body  2
    density:          1.000000
    shape axes ratio: (1.000000, 0.700000, 0.700000)
    initial KE ratio: 30.000000
    position:         (4.000000, 0.000000, 0.000000)
    velocity:         (0.440316, -0.054229, 0.655679)
    angular velocity: (-0.877220, -6.179871, -0.719788)
    orientation:      (w=-0.211948, i=0.349254, j=0.747149, k=0.524279)

Preparing first step: implicit scheme, no bootstrap passes required.
First step may take longer than later steps.

First step completed in 0.301 s.

Step   100/2000    5.0% | t 5.000 | ETA 4m 10s | step 0.12s | KE 73.4999 | drift -0.08% | fluid 4.7451 | solid 68.7548
  Impulse FP iterations last/mean/max 9/9.17/10
Step   200/2000   10.0% | t 10.000 | ETA 3m 57s | step 0.13s | KE 73.4466 | drift -0.15% | fluid 4.6998 | solid 68.7468
  Impulse FP iterations last/mean/max 9/9.18/10
Step   300/2000   15.0% | t 15.000 | ETA 3m 44s | step 0.13s | KE 73.3859 | drift -0.23% | fluid 4.8225 | solid 68.5634
  Impulse FP iterations last/mean/max 9/9.20/10
Step   400/2000   20.0% | t 20.000 | ETA 3m 31s | step 0.14s | KE 73.3520 | drift -0.28% | fluid 4.7500 | solid 68.6021
  Impulse FP iterations last/mean/max 9/9.21/10
Step   500/2000   25.0% | t 25.000 | ETA 3m 18s | step 0.14s | KE 73.3241 | drift -0.32% | fluid 4.6974 | solid 68.6267
  Impulse FP iterations last/mean/max 10/9.22/10
Step   600/2000   30.0% | t 30.000 | ETA 3m 5s | step 0.13s | KE 73.2835 | drift -0.37% | fluid 4.8415 | solid 68.4420
  Impulse FP iterations last/mean/max 9/9.22/10
Step   700/2000   35.0% | t 35.000 | ETA 2m 52s | step 0.13s | KE 73.2722 | drift -0.39% | fluid 4.7031 | solid 68.5691
  Impulse FP iterations last/mean/max 9/9.23/10
Step   800/2000   40.0% | t 40.000 | ETA 2m 38s | step 0.12s | KE 73.2571 | drift -0.41% | fluid 4.6574 | solid 68.5997
  Impulse FP iterations last/mean/max 9/9.22/10
Step   900/2000   45.0% | t 45.000 | ETA 2m 25s | step 0.14s | KE 73.2266 | drift -0.45% | fluid 4.8577 | solid 68.3689
  Impulse FP iterations last/mean/max 9/9.20/10
Step  1000/2000   50.0% | t 50.000 | ETA 2m 11s | step 0.13s | KE 73.2274 | drift -0.45% | fluid 4.7032 | solid 68.5241
  Impulse FP iterations last/mean/max 9/9.19/10
Step  1100/2000   55.0% | t 55.000 | ETA 1m 58s | step 0.14s | KE 73.2162 | drift -0.46% | fluid 4.6982 | solid 68.5179
  Impulse FP iterations last/mean/max 9/9.16/10
Step  1200/2000   60.0% | t 60.000 | ETA 1m 44s | step 0.13s | KE 73.1980 | drift -0.49% | fluid 4.8151 | solid 68.3829
  Impulse FP iterations last/mean/max 9/9.13/10
Step  1300/2000   65.0% | t 65.000 | ETA 1m 31s | step 0.13s | KE 73.2041 | drift -0.48% | fluid 4.6422 | solid 68.5618
  Impulse FP iterations last/mean/max 9/9.10/10
Step  1400/2000   70.0% | t 70.000 | ETA 1m 18s | step 0.12s | KE 73.1875 | drift -0.50% | fluid 4.7779 | solid 68.4095
  Impulse FP iterations last/mean/max 8/9.07/10
Step  1500/2000   75.0% | t 75.000 | ETA 1m 4s | step 0.13s | KE 73.1813 | drift -0.51% | fluid 4.7969 | solid 68.3845
  Impulse FP iterations last/mean/max 9/9.05/10
Step  1600/2000   80.0% | t 80.000 | ETA 51s | step 0.13s | KE 73.1908 | drift -0.50% | fluid 4.6143 | solid 68.5765
  Impulse FP iterations last/mean/max 9/9.03/10
Step  1700/2000   85.0% | t 85.000 | ETA 38s | step 0.10s | KE 73.1717 | drift -0.52% | fluid 4.8123 | solid 68.3594
  Impulse FP iterations last/mean/max 8/9.00/10
Step  1800/2000   90.0% | t 90.000 | ETA 25s | step 0.11s | KE 73.1736 | drift -0.52% | fluid 4.7414 | solid 68.4322
  Impulse FP iterations last/mean/max 9/8.98/10
Step  1900/2000   95.0% | t 95.000 | ETA 12s | step 0.12s | KE 73.1767 | drift -0.52% | fluid 4.6652 | solid 68.5115
  Impulse FP iterations last/mean/max 9/8.96/10
Solver finished successfully - good job!
Results saved successfully.

================== Run summary ==================
  Bodies:            2
  Triangles / nodes: 256 / 516
  Timesteps:         2000  (dt = 0.05)
  Simulated time:    0 -> 100
  First-step setup:  0.301 s
  Mean time/step:    0.1263 s  (excl. first step)
  Total wall time:   4m 12s
  Impulse FP iters last/mean/max: 8 / 8.937 / 10
  Approx impulse solves/step:     8.938
  Impulse start cache hits/direct: 1999 / 1
  Impulse global drift P/H:       1.294975e-7 / 5.817745e-3
  Impulse per-body max drift P/H: 2.741739e-7 / 2.648582e-3
  CPU cores:         256 available, 8 Rayon worker thread(s)
  Started:           2026-06-24 01:39:25
  Finished:          2026-06-24 01:43:38
  Output file:       /work/e643/e643/shared/multi_ellip/studies/two_body_paper_sweeps/runs/spheroid_1_0p7_0p7/spheroid_1_0p7_0p7_rho1_E30_sep8_run04_impulse_noproj/multiple_body_complete.dat
================================================
