
================ Simulation setup ================
  Run label:         /work/e643/e643/shared/multi_ellip/studies/two_body_paper_sweeps/runs/ellipsoid_1_0p8_0p6/ellipsoid_1_0p8_0p6_rho0p1_E30_sep11_run03_impulse_noproj/
  Started:           2026-06-24 02:24:41
  Input file:        /work/e643/e643/shared/multi_ellip/studies/two_body_paper_sweeps/runs/ellipsoid_1_0p8_0p6/ellipsoid_1_0p8_0p6_rho0p1_E30_sep11_run03_impulse_noproj/input.txt
  Output file:       /work/e643/e643/shared/multi_ellip/studies/two_body_paper_sweeps/runs/ellipsoid_1_0p8_0p6/ellipsoid_1_0p8_0p6_rho0p1_E30_sep11_run03_impulse_noproj/multiple_body_complete.dat
  Bodies:            2
  Fluid density:     1
  Mesh:              ndiv 2 -> 256 triangles / 516 nodes
  Simulated time:    0 -> 100  (dt = 0.05, ~2000 steps)
  Output cadence:    every 1 step(s)
  Output rows:       ~2001
  Progress cadence:  every 100 step(s)
  CPU cores:         256 available, 8 Rayon worker thread(s)
  Strong coupling:   disabled
  Impulse scheme:    enabled
  Hamiltonian step:  disabled
  Hamiltonian midpt: disabled
  Variational step:  disabled
  Energy projection: disabled
  Projection particular metric: Euclidean
  Fluid KE gradient: disabled  (eps = 0.001, scale = 1, linear = 1, angular = 1)
  Fluid KE discrete gradient: disabled
  Impulse pair metric correction: disabled  (mode = pair discrete-gradient, cutoff = all pairs, inner/outer = 0/0, eps = 0.001, linear scale = 1, angular scale = 0)
  Impulse metric correction: disabled  (internal load constraint = disabled)
  Impulse variational defect probe: disabled
  Impulse quadratic pressure: disabled  (scale = 1)
  Added-mass stab:   disabled
  Exact BEM geometry: disabled
  Exact singular BEM: disabled
  Legacy singular SLP diagnostic: disabled
  Phi-dot blend:     0 (off)

  Solver guidance:
    - Strong coupling: use for stiff close-coupled runs; slower but more implicit.
    - Impulse scheme: use when impulse/momentum conservation or KE drift is the focus. Recommended.
    - Added-mass stab: use for higher mesh counts (ndiv > 3) to preserve stability - deprecated.
================================================
Solver starting - good luck!

Initial state:
  Body  1
    density:          0.100000
    shape axes ratio: (1.000000, 0.800000, 0.600000)
    initial KE ratio: 30.000000
    position:         (-5.500000, 0.000000, 0.000000)
    velocity:         (0.188772, 0.178023, -0.611787)
    angular velocity: (-6.032213, 1.739618, -0.254075)
    orientation:      (w=0.061689, i=-0.842759, j=0.366388, k=0.389501)
  Body  2
    density:          0.100000
    shape axes ratio: (1.000000, 0.800000, 0.600000)
    initial KE ratio: 30.000000
    position:         (5.500000, 0.000000, 0.000000)
    velocity:         (0.199179, 0.187837, -0.645514)
    angular velocity: (-4.892023, -3.881295, 0.694321)
    orientation:      (w=-0.930548, i=-0.227202, j=-0.170937, k=0.230738)

Preparing first step: implicit scheme, no bootstrap passes required.
First step may take longer than later steps.

First step completed in 0.389 s.

Step   100/2000    5.0% | t 5.000 | ETA 8m 42s | step 0.27s | KE 16.4459 | drift +0.10% | fluid 9.1467 | solid 7.2992
  Impulse FP iterations last/mean/max 20/20.11/23
Step   200/2000   10.0% | t 10.000 | ETA 8m 9s | step 0.24s | KE 16.4241 | drift -0.03% | fluid 8.6889 | solid 7.7352
  Impulse FP iterations last/mean/max 19/20.14/23
Step   300/2000   15.0% | t 15.000 | ETA 7m 36s | step 0.27s | KE 16.4993 | drift +0.42% | fluid 8.9127 | solid 7.5866
  Impulse FP iterations last/mean/max 21/20.12/23
Step   400/2000   20.0% | t 20.000 | ETA 7m 9s | step 0.28s | KE 16.4908 | drift +0.37% | fluid 9.5318 | solid 6.9590
  Impulse FP iterations last/mean/max 20/20.17/23
Step   500/2000   25.0% | t 25.000 | ETA 6m 36s | step 0.24s | KE 16.5546 | drift +0.76% | fluid 8.9031 | solid 7.6515
  Impulse FP iterations last/mean/max 20/20.13/23
Step   600/2000   30.0% | t 30.000 | ETA 6m 8s | step 0.27s | KE 16.5937 | drift +1.00% | fluid 9.6598 | solid 6.9339
  Impulse FP iterations last/mean/max 20/20.18/23
Step   700/2000   35.0% | t 35.000 | ETA 5m 41s | step 0.26s | KE 16.5987 | drift +1.03% | fluid 8.3537 | solid 8.2451
  Impulse FP iterations last/mean/max 20/20.20/23
Step   800/2000   40.0% | t 40.000 | ETA 5m 13s | step 0.25s | KE 16.6724 | drift +1.48% | fluid 9.5923 | solid 7.0801
  Impulse FP iterations last/mean/max 20/20.21/23
Step   900/2000   45.0% | t 45.000 | ETA 4m 48s | step 0.27s | KE 16.6580 | drift +1.39% | fluid 9.0245 | solid 7.6334
  Impulse FP iterations last/mean/max 20/20.23/23
Step  1000/2000   50.0% | t 50.000 | ETA 4m 21s | step 0.26s | KE 16.7227 | drift +1.78% | fluid 9.1642 | solid 7.5585
  Impulse FP iterations last/mean/max 19/20.21/23
Step  1100/2000   55.0% | t 55.000 | ETA 3m 55s | step 0.28s | KE 16.7261 | drift +1.80% | fluid 9.6113 | solid 7.1148
  Impulse FP iterations last/mean/max 20/20.24/23
Step  1200/2000   60.0% | t 60.000 | ETA 3m 28s | step 0.26s | KE 16.7331 | drift +1.85% | fluid 8.6882 | solid 8.0449
  Impulse FP iterations last/mean/max 21/20.24/23
Step  1300/2000   65.0% | t 65.000 | ETA 3m 2s | step 0.25s | KE 16.7691 | drift +2.07% | fluid 10.0095 | solid 6.7596
  Impulse FP iterations last/mean/max 20/20.23/23
Step  1400/2000   70.0% | t 70.000 | ETA 2m 35s | step 0.23s | KE 16.7424 | drift +1.90% | fluid 8.0281 | solid 8.7144
  Impulse FP iterations last/mean/max 19/20.24/23
Step  1500/2000   75.0% | t 75.000 | ETA 2m 9s | step 0.23s | KE 16.8054 | drift +2.29% | fluid 10.0276 | solid 6.7778
  Impulse FP iterations last/mean/max 20/20.23/23
Step  1600/2000   80.0% | t 80.000 | ETA 1m 43s | step 0.28s | KE 16.8052 | drift +2.29% | fluid 8.6725 | solid 8.1328
  Impulse FP iterations last/mean/max 20/20.23/23
Step  1700/2000   85.0% | t 85.000 | ETA 1m 17s | step 0.27s | KE 16.8192 | drift +2.37% | fluid 9.3609 | solid 7.4583
  Impulse FP iterations last/mean/max 20/20.22/23
Step  1800/2000   90.0% | t 90.000 | ETA 51s | step 0.24s | KE 16.8342 | drift +2.46% | fluid 9.4208 | solid 7.4134
  Impulse FP iterations last/mean/max 21/20.23/23
Step  1900/2000   95.0% | t 95.000 | ETA 25s | step 0.23s | KE 16.7923 | drift +2.21% | fluid 8.9405 | solid 7.8518
  Impulse FP iterations last/mean/max 20/20.24/23
Solver finished successfully - good job!
Results saved successfully.

================== Run summary ==================
  Bodies:            2
  Triangles / nodes: 256 / 516
  Timesteps:         2000  (dt = 0.05)
  Simulated time:    0 -> 100
  First-step setup:  0.389 s
  Mean time/step:    0.2564 s  (excl. first step)
  Total wall time:   8m 32s
  Impulse FP iters last/mean/max: 20 / 20.239 / 23
  Approx impulse solves/step:     20.240
  Impulse start cache hits/direct: 1999 / 1
  Impulse global drift P/H:       5.779733e-8 / 6.742005e-3
  Impulse per-body max drift P/H: 1.030598e-7 / 1.822479e-3
  CPU cores:         256 available, 8 Rayon worker thread(s)
  Started:           2026-06-24 02:24:41
  Finished:          2026-06-24 02:33:14
  Output file:       /work/e643/e643/shared/multi_ellip/studies/two_body_paper_sweeps/runs/ellipsoid_1_0p8_0p6/ellipsoid_1_0p8_0p6_rho0p1_E30_sep11_run03_impulse_noproj/multiple_body_complete.dat
================================================
