
================ Simulation setup ================
  Run label:         /work/e643/e643/shared/multi_ellip/studies/two_body_paper_sweeps/runs/spheroid_1_0p7_0p7/spheroid_1_0p7_0p7_rho0p3_E0p55_sep8_run02_impulse_noproj/
  Started:           2026-06-22 19:39:27
  Input file:        /work/e643/e643/shared/multi_ellip/studies/two_body_paper_sweeps/runs/spheroid_1_0p7_0p7/spheroid_1_0p7_0p7_rho0p3_E0p55_sep8_run02_impulse_noproj/input.txt
  Output file:       /work/e643/e643/shared/multi_ellip/studies/two_body_paper_sweeps/runs/spheroid_1_0p7_0p7/spheroid_1_0p7_0p7_rho0p3_E0p55_sep8_run02_impulse_noproj/multiple_body_complete.dat
  Bodies:            2
  Fluid density:     1
  Mesh:              ndiv 2 -> 256 triangles / 516 nodes
  Simulated time:    0 -> 100  (dt = 0.05, ~2000 steps)
  Output cadence:    every 1 step(s)
  Output rows:       ~2001
  Progress cadence:  every 100 step(s)
  CPU cores:         256 available, 8 Rayon worker thread(s)
  Strong coupling:   disabled
  Impulse scheme:    enabled
  Hamiltonian step:  disabled
  Hamiltonian midpt: disabled
  Variational step:  disabled
  Energy projection: disabled
  Projection particular metric: Euclidean
  Fluid KE gradient: disabled  (eps = 0.001, scale = 1, linear = 1, angular = 1)
  Fluid KE discrete gradient: disabled
  Impulse pair metric correction: disabled  (mode = pair discrete-gradient, cutoff = all pairs, inner/outer = 0/0, eps = 0.001, linear scale = 1, angular scale = 0)
  Impulse metric correction: disabled  (internal load constraint = disabled)
  Impulse variational defect probe: disabled
  Impulse quadratic pressure: disabled  (scale = 1)
  Added-mass stab:   disabled
  Exact BEM geometry: disabled
  Exact singular BEM: disabled
  Legacy singular SLP diagnostic: disabled
  Phi-dot blend:     0 (off)

  Solver guidance:
    - Strong coupling: use for stiff close-coupled runs; slower but more implicit.
    - Impulse scheme: use when impulse/momentum conservation or KE drift is the focus. Recommended.
    - Added-mass stab: use for higher mesh counts (ndiv > 3) to preserve stability - deprecated.
================================================
Solver starting - good luck!

Initial state:
  Body  1
    density:          0.300000
    shape axes ratio: (1.000000, 0.700000, 0.700000)
    initial KE ratio: 0.550000
    position:         (-4.000000, 0.000000, 0.000000)
    velocity:         (4.860084, 1.338982, -2.940834)
    angular velocity: (-1.088178, -4.138833, -4.600472)
    orientation:      (w=0.577350, i=0.577350, j=0.577350, k=0.000000)
  Body  2
    density:          0.300000
    shape axes ratio: (1.000000, 0.700000, 0.700000)
    initial KE ratio: 0.550000
    position:         (4.000000, 0.000000, 0.000000)
    velocity:         (4.769567, 1.314044, -2.886062)
    angular velocity: (-2.323077, -5.355216, 2.324520)
    orientation:      (w=0.577350, i=-0.577350, j=0.000000, k=0.577350)

Preparing first step: implicit scheme, no bootstrap passes required.
First step may take longer than later steps.

First step completed in 0.390 s.

Step   100/2000    5.0% | t 5.000 | ETA 5m 51s | step 0.20s | KE 152.2926 | drift +14.41% | fluid 73.2140 | solid 79.0786
  Impulse FP iterations last/mean/max 13/12.71/14
Step   200/2000   10.0% | t 10.000 | ETA 5m 51s | step 0.20s | KE 181.1263 | drift +36.08% | fluid 82.4029 | solid 98.7234
  Impulse FP iterations last/mean/max 14/13.27/15
Step   300/2000   15.0% | t 15.000 | ETA 5m 30s | step 0.18s | KE 190.0749 | drift +42.80% | fluid 84.5609 | solid 105.5140
  Impulse FP iterations last/mean/max 13/13.24/15
Step   400/2000   20.0% | t 20.000 | ETA 5m 6s | step 0.20s | KE 201.1343 | drift +51.11% | fluid 86.7669 | solid 114.3674
  Impulse FP iterations last/mean/max 14/13.14/15
Step   500/2000   25.0% | t 25.000 | ETA 4m 42s | step 0.19s | KE 207.6148 | drift +55.98% | fluid 88.2628 | solid 119.3520
  Impulse FP iterations last/mean/max 13/13.07/15
Step   600/2000   30.0% | t 30.000 | ETA 4m 21s | step 0.18s | KE 207.0861 | drift +55.58% | fluid 88.0075 | solid 119.0785
  Impulse FP iterations last/mean/max 13/13.00/15
Step   700/2000   35.0% | t 35.000 | ETA 4m 1s | step 0.16s | KE 208.9563 | drift +56.98% | fluid 88.4324 | solid 120.5239
  Impulse FP iterations last/mean/max 12/12.95/15
Step   800/2000   40.0% | t 40.000 | ETA 3m 41s | step 0.19s | KE 212.3578 | drift +59.54% | fluid 89.3975 | solid 122.9603
  Impulse FP iterations last/mean/max 14/12.91/15
Step   900/2000   45.0% | t 45.000 | ETA 3m 22s | step 0.18s | KE 208.6103 | drift +56.72% | fluid 88.3256 | solid 120.2847
  Impulse FP iterations last/mean/max 12/12.88/15
Step  1000/2000   50.0% | t 50.000 | ETA 3m 3s | step 0.15s | KE 209.5777 | drift +57.45% | fluid 88.6078 | solid 120.9700
  Impulse FP iterations last/mean/max 11/12.85/15
Step  1100/2000   55.0% | t 55.000 | ETA 2m 44s | step 0.18s | KE 212.4282 | drift +59.59% | fluid 89.5139 | solid 122.9143
  Impulse FP iterations last/mean/max 13/12.83/15
Step  1200/2000   60.0% | t 60.000 | ETA 2m 25s | step 0.17s | KE 208.1313 | drift +56.36% | fluid 88.2548 | solid 119.8764
  Impulse FP iterations last/mean/max 13/12.81/15
Step  1300/2000   65.0% | t 65.000 | ETA 2m 7s | step 0.17s | KE 210.3905 | drift +58.06% | fluid 88.9450 | solid 121.4456
  Impulse FP iterations last/mean/max 12/12.79/15
Step  1400/2000   70.0% | t 70.000 | ETA 1m 48s | step 0.16s | KE 212.1158 | drift +59.36% | fluid 89.3831 | solid 122.7327
  Impulse FP iterations last/mean/max 13/12.78/15
Step  1500/2000   75.0% | t 75.000 | ETA 1m 29s | step 0.14s | KE 207.6693 | drift +56.02% | fluid 88.1044 | solid 119.5649
  Impulse FP iterations last/mean/max 13/12.77/15
Step  1600/2000   80.0% | t 80.000 | ETA 1m 10s | step 0.14s | KE 210.9154 | drift +58.45% | fluid 88.9696 | solid 121.9458
  Impulse FP iterations last/mean/max 13/12.76/15
Step  1700/2000   85.0% | t 85.000 | ETA 52s | step 0.15s | KE 211.5936 | drift +58.96% | fluid 89.1646 | solid 122.4290
  Impulse FP iterations last/mean/max 13/12.75/15
Step  1800/2000   90.0% | t 90.000 | ETA 34s | step 0.11s | KE 207.5093 | drift +55.90% | fluid 88.0225 | solid 119.4868
  Impulse FP iterations last/mean/max 10/12.75/15
Step  1900/2000   95.0% | t 95.000 | ETA 16s | step 0.15s | KE 211.4422 | drift +58.85% | fluid 89.1577 | solid 122.2845
  Impulse FP iterations last/mean/max 13/12.74/15
Solver finished successfully - good job!
Results saved successfully.

================== Run summary ==================
  Bodies:            2
  Triangles / nodes: 256 / 516
  Timesteps:         2000  (dt = 0.05)
  Simulated time:    0 -> 100
  First-step setup:  0.390 s
  Mean time/step:    0.1675 s  (excl. first step)
  Total wall time:   5m 35s
  Impulse FP iters last/mean/max: 12 / 12.732 / 15
  Approx impulse solves/step:     12.732
  Impulse start cache hits/direct: 1999 / 1
  Impulse global drift P/H:       1.923412e-8 / 1.582644e-1
  Impulse per-body max drift P/H: 3.311814e-8 / 3.069906e-2
  CPU cores:         256 available, 8 Rayon worker thread(s)
  Started:           2026-06-22 19:39:27
  Finished:          2026-06-22 19:45:03
  Output file:       /work/e643/e643/shared/multi_ellip/studies/two_body_paper_sweeps/runs/spheroid_1_0p7_0p7/spheroid_1_0p7_0p7_rho0p3_E0p55_sep8_run02_impulse_noproj/multiple_body_complete.dat
================================================
