
================ Simulation setup ================
  Run label:         /work/e643/e643/shared/multi_ellip/studies/two_body_paper_sweeps/runs/ellipsoid_1_0p8_0p6/ellipsoid_1_0p8_0p6_rho4_E11_sep8_run03_impulse_noproj/
  Started:           2026-06-24 01:29:12
  Input file:        /work/e643/e643/shared/multi_ellip/studies/two_body_paper_sweeps/runs/ellipsoid_1_0p8_0p6/ellipsoid_1_0p8_0p6_rho4_E11_sep8_run03_impulse_noproj/input.txt
  Output file:       /work/e643/e643/shared/multi_ellip/studies/two_body_paper_sweeps/runs/ellipsoid_1_0p8_0p6/ellipsoid_1_0p8_0p6_rho4_E11_sep8_run03_impulse_noproj/multiple_body_complete.dat
  Bodies:            2
  Fluid density:     1
  Mesh:              ndiv 2 -> 256 triangles / 516 nodes
  Simulated time:    0 -> 100  (dt = 0.05, ~2000 steps)
  Output cadence:    every 1 step(s)
  Output rows:       ~2001
  Progress cadence:  every 100 step(s)
  CPU cores:         256 available, 8 Rayon worker thread(s)
  Strong coupling:   disabled
  Impulse scheme:    enabled
  Hamiltonian step:  disabled
  Hamiltonian midpt: disabled
  Variational step:  disabled
  Energy projection: disabled
  Projection particular metric: Euclidean
  Fluid KE gradient: disabled  (eps = 0.001, scale = 1, linear = 1, angular = 1)
  Fluid KE discrete gradient: disabled
  Impulse pair metric correction: disabled  (mode = pair discrete-gradient, cutoff = all pairs, inner/outer = 0/0, eps = 0.001, linear scale = 1, angular scale = 0)
  Impulse metric correction: disabled  (internal load constraint = disabled)
  Impulse variational defect probe: disabled
  Impulse quadratic pressure: disabled  (scale = 1)
  Added-mass stab:   disabled
  Exact BEM geometry: disabled
  Exact singular BEM: disabled
  Legacy singular SLP diagnostic: disabled
  Phi-dot blend:     0 (off)

  Solver guidance:
    - Strong coupling: use for stiff close-coupled runs; slower but more implicit.
    - Impulse scheme: use when impulse/momentum conservation or KE drift is the focus. Recommended.
    - Added-mass stab: use for higher mesh counts (ndiv > 3) to preserve stability - deprecated.
================================================
Solver starting - good luck!

Initial state:
  Body  1
    density:          4.000000
    shape axes ratio: (1.000000, 0.800000, 0.600000)
    initial KE ratio: 11.000000
    position:         (-4.000000, 0.000000, 0.000000)
    velocity:         (-0.237381, 1.120270, -0.416663)
    angular velocity: (-3.421531, 5.064859, -1.455593)
    orientation:      (w=-0.182446, i=-0.827739, j=0.507816, k=-0.153901)
  Body  2
    density:          4.000000
    shape axes ratio: (1.000000, 0.800000, 0.600000)
    initial KE ratio: 11.000000
    position:         (4.000000, 0.000000, 0.000000)
    velocity:         (-0.247447, 1.167774, -0.434332)
    angular velocity: (4.019252, 0.012200, -4.829480)
    orientation:      (w=-0.713327, i=-0.126313, j=0.428133, k=0.540288)

Preparing first step: implicit scheme, no bootstrap passes required.
First step may take longer than later steps.

First step completed in 0.338 s.

Step   100/2000    5.0% | t 5.000 | ETA 3m 44s | step 0.12s | KE 311.8818 | drift -0.02% | fluid 6.6535 | solid 305.2283
  Impulse FP iterations last/mean/max 8/8.16/9
Step   200/2000   10.0% | t 10.000 | ETA 3m 33s | step 0.12s | KE 311.8361 | drift -0.03% | fluid 7.2712 | solid 304.5649
  Impulse FP iterations last/mean/max 8/8.18/9
Step   300/2000   15.0% | t 15.000 | ETA 3m 16s | step 0.10s | KE 311.8248 | drift -0.03% | fluid 7.5574 | solid 304.2674
  Impulse FP iterations last/mean/max 8/8.14/9
Step   400/2000   20.0% | t 20.000 | ETA 3m 0s | step 0.11s | KE 311.8521 | drift -0.02% | fluid 6.4689 | solid 305.3833
  Impulse FP iterations last/mean/max 8/8.16/9
Step   500/2000   25.0% | t 25.000 | ETA 2m 48s | step 0.11s | KE 311.8572 | drift -0.02% | fluid 6.5478 | solid 305.3094
  Impulse FP iterations last/mean/max 8/8.16/9
Step   600/2000   30.0% | t 30.000 | ETA 2m 38s | step 0.12s | KE 311.8670 | drift -0.02% | fluid 6.4834 | solid 305.3836
  Impulse FP iterations last/mean/max 8/8.18/9
Step   700/2000   35.0% | t 35.000 | ETA 2m 28s | step 0.11s | KE 311.8863 | drift -0.01% | fluid 6.3792 | solid 305.5071
  Impulse FP iterations last/mean/max 8/8.18/9
Step   800/2000   40.0% | t 40.000 | ETA 2m 17s | step 0.12s | KE 311.9025 | drift -0.01% | fluid 7.0851 | solid 304.8174
  Impulse FP iterations last/mean/max 9/8.17/9
Step   900/2000   45.0% | t 45.000 | ETA 2m 6s | step 0.12s | KE 311.9483 | drift +0.01% | fluid 6.9231 | solid 305.0252
  Impulse FP iterations last/mean/max 8/8.17/9
Step  1000/2000   50.0% | t 50.000 | ETA 1m 55s | step 0.12s | KE 311.9744 | drift +0.01% | fluid 7.2322 | solid 304.7422
  Impulse FP iterations last/mean/max 8/8.18/9
Step  1100/2000   55.0% | t 55.000 | ETA 1m 44s | step 0.12s | KE 312.0024 | drift +0.02% | fluid 6.5012 | solid 305.5012
  Impulse FP iterations last/mean/max 8/8.18/9
Step  1200/2000   60.0% | t 60.000 | ETA 1m 32s | step 0.11s | KE 312.0462 | drift +0.04% | fluid 6.3111 | solid 305.7351
  Impulse FP iterations last/mean/max 8/8.19/9
Step  1300/2000   65.0% | t 65.000 | ETA 1m 21s | step 0.11s | KE 312.1594 | drift +0.07% | fluid 6.2724 | solid 305.8870
  Impulse FP iterations last/mean/max 8/8.18/9
Step  1400/2000   70.0% | t 70.000 | ETA 1m 10s | step 0.13s | KE 312.3137 | drift +0.12% | fluid 6.7359 | solid 305.5778
  Impulse FP iterations last/mean/max 9/8.19/9
Step  1500/2000   75.0% | t 75.000 | ETA 58s | step 0.11s | KE 312.5667 | drift +0.20% | fluid 7.2616 | solid 305.3052
  Impulse FP iterations last/mean/max 8/8.19/9
Step  1600/2000   80.0% | t 80.000 | ETA 46s | step 0.12s | KE 312.9538 | drift +0.33% | fluid 6.9665 | solid 305.9873
  Impulse FP iterations last/mean/max 9/8.19/9
Step  1700/2000   85.0% | t 85.000 | ETA 35s | step 0.13s | KE 313.5166 | drift +0.51% | fluid 7.4788 | solid 306.0378
  Impulse FP iterations last/mean/max 9/8.20/9
Step  1800/2000   90.0% | t 90.000 | ETA 23s | step 0.11s | KE 314.3136 | drift +0.76% | fluid 6.7464 | solid 307.5672
  Impulse FP iterations last/mean/max 8/8.20/9
Step  1900/2000   95.0% | t 95.000 | ETA 11s | step 0.11s | KE 315.3489 | drift +1.10% | fluid 6.2655 | solid 309.0834
  Impulse FP iterations last/mean/max 8/8.20/9
Solver finished successfully - good job!
Results saved successfully.

================== Run summary ==================
  Bodies:            2
  Triangles / nodes: 256 / 516
  Timesteps:         2000  (dt = 0.05)
  Simulated time:    0 -> 100
  First-step setup:  0.338 s
  Mean time/step:    0.1175 s  (excl. first step)
  Total wall time:   3m 55s
  Impulse FP iters last/mean/max: 8 / 8.204 / 9
  Approx impulse solves/step:     8.205
  Impulse start cache hits/direct: 1999 / 1
  Impulse global drift P/H:       2.296667e-8 / 1.087291e-2
  Impulse per-body max drift P/H: 4.838257e-8 / 5.954901e-3
  CPU cores:         256 available, 8 Rayon worker thread(s)
  Started:           2026-06-24 01:29:12
  Finished:          2026-06-24 01:33:07
  Output file:       /work/e643/e643/shared/multi_ellip/studies/two_body_paper_sweeps/runs/ellipsoid_1_0p8_0p6/ellipsoid_1_0p8_0p6_rho4_E11_sep8_run03_impulse_noproj/multiple_body_complete.dat
================================================
