
================ Simulation setup ================
  Run label:         /work/e643/e643/shared/multi_ellip/studies/multibody_convergence_sweep/runs/stress_grid_spheroid_1_0p7_0p7_rho1_E0p25_sep8_nd3_dt0p025/
  Started:           2026-06-22 21:05:17
  Input file:        /work/e643/e643/shared/multi_ellip/studies/multibody_convergence_sweep/runs/stress_grid_spheroid_1_0p7_0p7_rho1_E0p25_sep8_nd3_dt0p025/input.txt
  Output file:       /work/e643/e643/shared/multi_ellip/studies/multibody_convergence_sweep/runs/stress_grid_spheroid_1_0p7_0p7_rho1_E0p25_sep8_nd3_dt0p025/multiple_body_complete.dat
  Bodies:            2
  Fluid density:     1
  Mesh:              ndiv 3 -> 1024 triangles / 2052 nodes
  Simulated time:    0 -> 10  (dt = 0.025, ~400 steps)
  Output cadence:    every 1 step(s)
  Output rows:       ~401
  Progress cadence:  every 40 step(s)
  CPU cores:         256 available, 16 Rayon worker thread(s)
  Strong coupling:   disabled
  Impulse scheme:    enabled
  Hamiltonian step:  disabled
  Hamiltonian midpt: disabled
  Variational step:  disabled
  Energy projection: disabled
  Projection particular metric: Euclidean
  Fluid KE gradient: disabled  (eps = 0.001, scale = 1, linear = 1, angular = 1)
  Fluid KE discrete gradient: disabled
  Impulse pair metric correction: disabled  (mode = pair discrete-gradient, cutoff = all pairs, inner/outer = 0/0, eps = 0.001, linear scale = 1, angular scale = 0)
  Impulse metric correction: disabled  (internal load constraint = disabled)
  Impulse variational defect probe: disabled
  Impulse quadratic pressure: disabled  (scale = 1)
  Added-mass stab:   disabled
  Exact BEM geometry: disabled
  Exact singular BEM: disabled
  Legacy singular SLP diagnostic: disabled
  Phi-dot blend:     0 (off)

  Solver guidance:
    - Strong coupling: use for stiff close-coupled runs; slower but more implicit.
    - Impulse scheme: use when impulse/momentum conservation or KE drift is the focus. Recommended.
    - Added-mass stab: use for higher mesh counts (ndiv > 3) to preserve stability - deprecated.
================================================
Solver starting - good luck!

Initial state:
  Body  1
    density:          1.000000
    shape axes ratio: (1.000000, 0.700000, 0.700000)
    initial KE ratio: 0.250000
    position:         (-4.000000, 0.000000, 0.000000)
    velocity:         (-5.778467, 2.047698, -6.103446)
    angular velocity: (1.156156, 2.639831, 5.583280)
    orientation:      (w=0.447214, i=0.894427, j=0.000000, k=0.000000)
  Body  2
    density:          1.000000
    shape axes ratio: (1.000000, 0.700000, 0.700000)
    initial KE ratio: 0.250000
    position:         (4.000000, 0.000000, 0.000000)
    velocity:         (-5.035188, 1.784305, -5.318366)
    angular velocity: (5.364556, 0.718524, -3.191189)
    orientation:      (w=0.707107, i=0.000000, j=0.707107, k=0.000000)

Preparing first step: implicit scheme, no bootstrap passes required.
First step may take longer than later steps.

First step completed in 2.105 s.

Step    40/400    10.0% | t 1.000 | ETA 5m 22s | step 0.90s | KE 494.8848 | drift +0.29% | fluid 148.5850 | solid 346.2998
  Impulse FP iterations last/mean/max 10/9.90/10
Step    80/400    20.0% | t 2.000 | ETA 4m 49s | step 0.91s | KE 490.2329 | drift -0.65% | fluid 153.0049 | solid 337.2279
  Impulse FP iterations last/mean/max 10/9.95/11
Step   120/400    30.0% | t 3.000 | ETA 4m 13s | step 0.91s | KE 490.3378 | drift -0.63% | fluid 135.0992 | solid 355.2386
  Impulse FP iterations last/mean/max 10/9.94/11
Step   160/400    40.0% | t 4.000 | ETA 3m 37s | step 0.91s | KE 490.6566 | drift -0.57% | fluid 140.6052 | solid 350.0514
  Impulse FP iterations last/mean/max 10/9.94/11
Step   200/400    50.0% | t 5.000 | ETA 3m 0s | step 0.89s | KE 490.2430 | drift -0.65% | fluid 132.2355 | solid 358.0075
  Impulse FP iterations last/mean/max 10/9.96/11
Step   240/400    60.0% | t 6.000 | ETA 2m 24s | step 0.91s | KE 489.4129 | drift -0.82% | fluid 143.7560 | solid 345.6569
  Impulse FP iterations last/mean/max 10/9.96/11
Step   280/400    70.0% | t 7.000 | ETA 1m 48s | step 0.89s | KE 489.6096 | drift -0.78% | fluid 141.7012 | solid 347.9084
  Impulse FP iterations last/mean/max 10/9.96/11
Step   320/400    80.0% | t 8.000 | ETA 1m 11s | step 0.88s | KE 490.2374 | drift -0.65% | fluid 153.2718 | solid 336.9656
  Impulse FP iterations last/mean/max 10/9.97/11
Step   360/400    90.0% | t 9.000 | ETA 35s | step 0.88s | KE 490.1696 | drift -0.67% | fluid 144.1146 | solid 346.0550
  Impulse FP iterations last/mean/max 10/9.96/11
Solver finished successfully - good job!
Results saved successfully.

================== Run summary ==================
  Bodies:            2
  Triangles / nodes: 1024 / 2052
  Timesteps:         400  (dt = 0.025)
  Simulated time:    0 -> 10
  First-step setup:  2.105 s
  Mean time/step:    0.8935 s  (excl. first step)
  Total wall time:   5m 58s
  Impulse FP iters last/mean/max: 10 / 9.957 / 11
  Approx impulse solves/step:     9.960
  Impulse start cache hits/direct: 399 / 1
  Impulse global drift P/H:       1.804939e-9 / 1.850019e-3
  Impulse per-body max drift P/H: 2.714837e-9 / 3.545772e-4
  CPU cores:         256 available, 16 Rayon worker thread(s)
  Started:           2026-06-22 21:05:17
  Finished:          2026-06-22 21:11:16
  Output file:       /work/e643/e643/shared/multi_ellip/studies/multibody_convergence_sweep/runs/stress_grid_spheroid_1_0p7_0p7_rho1_E0p25_sep8_nd3_dt0p025/multiple_body_complete.dat
================================================
