
================ Simulation setup ================
  Run label:         /work/e643/e643/shared/multi_ellip/studies/two_body_paper_sweeps/runs/spheroid_1_0p7_0p7/spheroid_1_0p7_0p7_rho4_E1p5_sep5_run03_impulse_noproj/
  Started:           2026-06-24 01:25:46
  Input file:        /work/e643/e643/shared/multi_ellip/studies/two_body_paper_sweeps/runs/spheroid_1_0p7_0p7/spheroid_1_0p7_0p7_rho4_E1p5_sep5_run03_impulse_noproj/input.txt
  Output file:       /work/e643/e643/shared/multi_ellip/studies/two_body_paper_sweeps/runs/spheroid_1_0p7_0p7/spheroid_1_0p7_0p7_rho4_E1p5_sep5_run03_impulse_noproj/multiple_body_complete.dat
  Bodies:            2
  Fluid density:     1
  Mesh:              ndiv 2 -> 256 triangles / 516 nodes
  Simulated time:    0 -> 100  (dt = 0.05, ~2000 steps)
  Output cadence:    every 1 step(s)
  Output rows:       ~2001
  Progress cadence:  every 100 step(s)
  CPU cores:         256 available, 8 Rayon worker thread(s)
  Strong coupling:   disabled
  Impulse scheme:    enabled
  Hamiltonian step:  disabled
  Hamiltonian midpt: disabled
  Variational step:  disabled
  Energy projection: disabled
  Projection particular metric: Euclidean
  Fluid KE gradient: disabled  (eps = 0.001, scale = 1, linear = 1, angular = 1)
  Fluid KE discrete gradient: disabled
  Impulse pair metric correction: disabled  (mode = pair discrete-gradient, cutoff = all pairs, inner/outer = 0/0, eps = 0.001, linear scale = 1, angular scale = 0)
  Impulse metric correction: disabled  (internal load constraint = disabled)
  Impulse variational defect probe: disabled
  Impulse quadratic pressure: disabled  (scale = 1)
  Added-mass stab:   disabled
  Exact BEM geometry: disabled
  Exact singular BEM: disabled
  Legacy singular SLP diagnostic: disabled
  Phi-dot blend:     0 (off)

  Solver guidance:
    - Strong coupling: use for stiff close-coupled runs; slower but more implicit.
    - Impulse scheme: use when impulse/momentum conservation or KE drift is the focus. Recommended.
    - Added-mass stab: use for higher mesh counts (ndiv > 3) to preserve stability - deprecated.
================================================
Solver starting - good luck!

Initial state:
  Body  1
    density:          4.000000
    shape axes ratio: (1.000000, 0.700000, 0.700000)
    initial KE ratio: 1.500000
    position:         (-2.500000, 0.000000, 0.000000)
    velocity:         (1.410587, 0.808893, -2.712965)
    angular velocity: (-4.888582, -3.476101, -1.870003)
    orientation:      (w=0.650509, i=0.004149, j=-0.757717, k=-0.051827)
  Body  2
    density:          4.000000
    shape axes ratio: (1.000000, 0.700000, 0.700000)
    initial KE ratio: 1.500000
    position:         (2.500000, 0.000000, 0.000000)
    velocity:         (1.440884, 0.826266, -2.771236)
    angular velocity: (4.464085, 0.760434, 4.355698)
    orientation:      (w=0.614257, i=-0.163786, j=0.665334, k=-0.391399)

Preparing first step: implicit scheme, no bootstrap passes required.
First step may take longer than later steps.

First step completed in 0.216 s.

Step   100/2000    5.0% | t 5.000 | ETA 3m 10s | step 0.11s | KE 492.5291 | drift +0.93% | fluid 23.2284 | solid 469.3006
  Impulse FP iterations last/mean/max 8/7.94/8
Step   200/2000   10.0% | t 10.000 | ETA 3m 11s | step 0.11s | KE 495.3619 | drift +1.51% | fluid 30.7645 | solid 464.5974
  Impulse FP iterations last/mean/max 8/7.92/8
Step   300/2000   15.0% | t 15.000 | ETA 3m 3s | step 0.10s | KE 497.2390 | drift +1.89% | fluid 27.7427 | solid 469.4963
  Impulse FP iterations last/mean/max 7/7.89/8
Step   400/2000   20.0% | t 20.000 | ETA 2m 52s | step 0.12s | KE 498.0200 | drift +2.05% | fluid 26.1189 | solid 471.9011
  Impulse FP iterations last/mean/max 8/7.78/8
Step   500/2000   25.0% | t 25.000 | ETA 2m 40s | step 0.12s | KE 497.9319 | drift +2.04% | fluid 29.6778 | solid 468.2542
  Impulse FP iterations last/mean/max 8/7.68/8
Step   600/2000   30.0% | t 30.000 | ETA 2m 28s | step 0.11s | KE 497.9923 | drift +2.05% | fluid 25.2313 | solid 472.7610
  Impulse FP iterations last/mean/max 7/7.58/8
Step   700/2000   35.0% | t 35.000 | ETA 2m 16s | step 0.10s | KE 497.7051 | drift +1.99% | fluid 28.0495 | solid 469.6556
  Impulse FP iterations last/mean/max 7/7.51/8
Step   800/2000   40.0% | t 40.000 | ETA 2m 5s | step 0.10s | KE 497.3939 | drift +1.93% | fluid 28.8178 | solid 468.5761
  Impulse FP iterations last/mean/max 7/7.45/8
Step   900/2000   45.0% | t 45.000 | ETA 1m 54s | step 0.10s | KE 497.0760 | drift +1.86% | fluid 29.4483 | solid 467.6277
  Impulse FP iterations last/mean/max 7/7.40/8
Step  1000/2000   50.0% | t 50.000 | ETA 1m 44s | step 0.10s | KE 497.0999 | drift +1.86% | fluid 22.2706 | solid 474.8293
  Impulse FP iterations last/mean/max 7/7.37/8
Step  1100/2000   55.0% | t 55.000 | ETA 1m 33s | step 0.11s | KE 496.6225 | drift +1.77% | fluid 30.1737 | solid 466.4489
  Impulse FP iterations last/mean/max 7/7.34/8
Step  1200/2000   60.0% | t 60.000 | ETA 1m 22s | step 0.10s | KE 496.5591 | drift +1.75% | fluid 28.6353 | solid 467.9238
  Impulse FP iterations last/mean/max 7/7.31/8
Step  1300/2000   65.0% | t 65.000 | ETA 1m 12s | step 0.09s | KE 496.4467 | drift +1.73% | fluid 28.4469 | solid 467.9998
  Impulse FP iterations last/mean/max 7/7.29/8
Step  1400/2000   70.0% | t 70.000 | ETA 1m 1s | step 0.09s | KE 496.5019 | drift +1.74% | fluid 23.5062 | solid 472.9957
  Impulse FP iterations last/mean/max 7/7.27/8
Step  1500/2000   75.0% | t 75.000 | ETA 51s | step 0.10s | KE 496.1496 | drift +1.67% | fluid 30.7549 | solid 465.3947
  Impulse FP iterations last/mean/max 7/7.25/8
Step  1600/2000   80.0% | t 80.000 | ETA 41s | step 0.11s | KE 496.2290 | drift +1.69% | fluid 28.2235 | solid 468.0055
  Impulse FP iterations last/mean/max 7/7.24/8
Step  1700/2000   85.0% | t 85.000 | ETA 30s | step 0.10s | KE 496.2213 | drift +1.68% | fluid 27.4577 | solid 468.7636
  Impulse FP iterations last/mean/max 7/7.23/8
Step  1800/2000   90.0% | t 90.000 | ETA 20s | step 0.10s | KE 496.2953 | drift +1.70% | fluid 23.7263 | solid 472.5690
  Impulse FP iterations last/mean/max 7/7.22/8
Step  1900/2000   95.0% | t 95.000 | ETA 10s | step 0.10s | KE 496.0331 | drift +1.65% | fluid 30.2770 | solid 465.7561
  Impulse FP iterations last/mean/max 7/7.21/8
Solver finished successfully - good job!
Results saved successfully.

================== Run summary ==================
  Bodies:            2
  Triangles / nodes: 256 / 516
  Timesteps:         2000  (dt = 0.05)
  Simulated time:    0 -> 100
  First-step setup:  0.216 s
  Mean time/step:    0.1019 s  (excl. first step)
  Total wall time:   3m 23s
  Impulse FP iters last/mean/max: 7 / 7.200 / 8
  Approx impulse solves/step:     7.200
  Impulse start cache hits/direct: 1999 / 1
  Impulse global drift P/H:       7.444070e-9 / 4.761469e-2
  Impulse per-body max drift P/H: 1.386680e-8 / 7.860688e-3
  CPU cores:         256 available, 8 Rayon worker thread(s)
  Started:           2026-06-24 01:25:46
  Finished:          2026-06-24 01:29:10
  Output file:       /work/e643/e643/shared/multi_ellip/studies/two_body_paper_sweeps/runs/spheroid_1_0p7_0p7/spheroid_1_0p7_0p7_rho4_E1p5_sep5_run03_impulse_noproj/multiple_body_complete.dat
================================================
