
================ Simulation setup ================
  Run label:         /work/e643/e643/shared/multi_ellip/studies/departing_sphericity_sweep/runs/spheroid_oblate/homogeneous/spheroid_oblate_homogeneous_eps0p03_rho1_E0p5_sep8_run09_impulse_noproj/
  Started:           2026-06-24 02:30:07
  Input file:        /work/e643/e643/shared/multi_ellip/studies/departing_sphericity_sweep/runs/spheroid_oblate/homogeneous/spheroid_oblate_homogeneous_eps0p03_rho1_E0p5_sep8_run09_impulse_noproj/input.txt
  Output file:       /work/e643/e643/shared/multi_ellip/studies/departing_sphericity_sweep/runs/spheroid_oblate/homogeneous/spheroid_oblate_homogeneous_eps0p03_rho1_E0p5_sep8_run09_impulse_noproj/multiple_body_complete.dat
  Bodies:            2
  Fluid density:     1
  Mesh:              ndiv 2 -> 256 triangles / 516 nodes
  Simulated time:    0 -> 100  (dt = 0.05, ~2000 steps)
  Output cadence:    every 1 step(s)
  Output rows:       ~2001
  Progress cadence:  every 100 step(s)
  CPU cores:         256 available, 8 Rayon worker thread(s)
  Strong coupling:   disabled
  Impulse scheme:    enabled
  Hamiltonian step:  disabled
  Hamiltonian midpt: disabled
  Variational step:  disabled
  Energy projection: disabled
  Projection particular metric: Euclidean
  Fluid KE gradient: disabled  (eps = 0.001, scale = 1, linear = 1, angular = 1)
  Fluid KE discrete gradient: disabled
  Impulse pair metric correction: disabled  (mode = pair discrete-gradient, cutoff = all pairs, inner/outer = 0/0, eps = 0.001, linear scale = 1, angular scale = 0)
  Impulse metric correction: disabled  (internal load constraint = disabled)
  Impulse variational defect probe: disabled
  Impulse quadratic pressure: disabled  (scale = 1)
  Added-mass stab:   disabled
  Exact BEM geometry: disabled
  Exact singular BEM: disabled
  Legacy singular SLP diagnostic: disabled
  Phi-dot blend:     0 (off)

  Solver guidance:
    - Strong coupling: use for stiff close-coupled runs; slower but more implicit.
    - Impulse scheme: use when impulse/momentum conservation or KE drift is the focus. Recommended.
    - Added-mass stab: use for higher mesh counts (ndiv > 3) to preserve stability - deprecated.
================================================
Solver starting - good luck!

Initial state:
  Body  1
    density:          1.000000
    shape axes ratio: (1.000000, 1.000000, 0.915142)
    initial KE ratio: 0.500000
    position:         (-4.000000, 0.000000, 0.000000)
    velocity:         (-0.198896, -5.404224, 1.576860)
    angular velocity: (-0.166959, -5.069680, 3.707949)
    orientation:      (w=0.786486, i=0.287150, j=-0.546095, k=-0.027660)
  Body  2
    density:          1.000000
    shape axes ratio: (1.000000, 1.000000, 0.915142)
    initial KE ratio: 0.500000
    position:         (4.000000, 0.000000, 0.000000)
    velocity:         (-0.196882, -5.349510, 1.560895)
    angular velocity: (1.896159, -5.603880, 2.116491)
    orientation:      (w=0.235808, i=0.021733, j=-0.439590, k=-0.866420)

Preparing first step: implicit scheme, no bootstrap passes required.
First step may take longer than later steps.

First step completed in 0.219 s.

Step   100/2000    5.0% | t 5.000 | ETA 3m 16s | step 0.10s | KE 269.3977 | drift -0.04% | fluid 72.2921 | solid 197.1056
  Impulse FP iterations last/mean/max 8/8.00/8
Step   200/2000   10.0% | t 10.000 | ETA 3m 8s | step 0.11s | KE 269.4167 | drift -0.04% | fluid 71.8007 | solid 197.6161
  Impulse FP iterations last/mean/max 8/8.00/8
Step   300/2000   15.0% | t 15.000 | ETA 2m 59s | step 0.12s | KE 269.4859 | drift -0.01% | fluid 71.8562 | solid 197.6298
  Impulse FP iterations last/mean/max 8/7.99/8
Step   400/2000   20.0% | t 20.000 | ETA 2m 49s | step 0.10s | KE 269.5517 | drift +0.01% | fluid 72.5674 | solid 196.9843
  Impulse FP iterations last/mean/max 8/7.99/8
Step   500/2000   25.0% | t 25.000 | ETA 2m 38s | step 0.10s | KE 269.6950 | drift +0.07% | fluid 71.3774 | solid 198.3176
  Impulse FP iterations last/mean/max 8/7.97/8
Step   600/2000   30.0% | t 30.000 | ETA 2m 24s | step 0.08s | KE 269.7350 | drift +0.08% | fluid 72.1401 | solid 197.5949
  Impulse FP iterations last/mean/max 7/7.94/8
Step   700/2000   35.0% | t 35.000 | ETA 2m 12s | step 0.10s | KE 269.7474 | drift +0.09% | fluid 72.2553 | solid 197.4922
  Impulse FP iterations last/mean/max 8/7.93/8
Step   800/2000   40.0% | t 40.000 | ETA 2m 2s | step 0.10s | KE 269.7668 | drift +0.09% | fluid 71.6790 | solid 198.0879
  Impulse FP iterations last/mean/max 7/7.91/8
Step   900/2000   45.0% | t 45.000 | ETA 1m 53s | step 0.11s | KE 269.7256 | drift +0.08% | fluid 71.8112 | solid 197.9143
  Impulse FP iterations last/mean/max 8/7.91/8
Step  1000/2000   50.0% | t 50.000 | ETA 1m 43s | step 0.11s | KE 269.6474 | drift +0.05% | fluid 72.2175 | solid 197.4299
  Impulse FP iterations last/mean/max 8/7.90/8
Step  1100/2000   55.0% | t 55.000 | ETA 1m 32s | step 0.11s | KE 269.5949 | drift +0.03% | fluid 72.1810 | solid 197.4139
  Impulse FP iterations last/mean/max 8/7.88/8
Step  1200/2000   60.0% | t 60.000 | ETA 1m 22s | step 0.10s | KE 269.5703 | drift +0.02% | fluid 71.3223 | solid 198.2480
  Impulse FP iterations last/mean/max 7/7.87/8
Step  1300/2000   65.0% | t 65.000 | ETA 1m 12s | step 0.11s | KE 269.4645 | drift -0.02% | fluid 72.6724 | solid 196.7922
  Impulse FP iterations last/mean/max 8/7.87/8
Step  1400/2000   70.0% | t 70.000 | ETA 1m 2s | step 0.11s | KE 269.4726 | drift -0.01% | fluid 71.8254 | solid 197.6472
  Impulse FP iterations last/mean/max 8/7.88/8
Step  1500/2000   75.0% | t 75.000 | ETA 51s | step 0.11s | KE 269.4361 | drift -0.03% | fluid 72.1870 | solid 197.2491
  Impulse FP iterations last/mean/max 8/7.87/8
Step  1600/2000   80.0% | t 80.000 | ETA 41s | step 0.11s | KE 269.4755 | drift -0.01% | fluid 71.5432 | solid 197.9323
  Impulse FP iterations last/mean/max 8/7.86/8
Step  1700/2000   85.0% | t 85.000 | ETA 31s | step 0.11s | KE 269.4161 | drift -0.04% | fluid 73.0409 | solid 196.3751
  Impulse FP iterations last/mean/max 8/7.85/8
Step  1800/2000   90.0% | t 90.000 | ETA 20s | step 0.11s | KE 269.5310 | drift +0.01% | fluid 71.3054 | solid 198.2256
  Impulse FP iterations last/mean/max 8/7.86/8
Step  1900/2000   95.0% | t 95.000 | ETA 10s | step 0.11s | KE 269.5136 | drift +0.00% | fluid 72.4014 | solid 197.1122
  Impulse FP iterations last/mean/max 8/7.86/8
Solver finished successfully - good job!
Results saved successfully.

================== Run summary ==================
  Bodies:            2
  Triangles / nodes: 256 / 516
  Timesteps:         2000  (dt = 0.05)
  Simulated time:    0 -> 100
  First-step setup:  0.219 s
  Mean time/step:    0.1038 s  (excl. first step)
  Total wall time:   3m 27s
  Impulse FP iters last/mean/max: 8 / 7.849 / 8
  Approx impulse solves/step:     7.850
  Impulse start cache hits/direct: 1999 / 1
  Impulse global drift P/H:       8.550231e-9 / 5.783826e-3
  Impulse per-body max drift P/H: 1.799404e-8 / 4.828227e-4
  CPU cores:         256 available, 8 Rayon worker thread(s)
  Started:           2026-06-24 02:30:07
  Finished:          2026-06-24 02:33:35
  Output file:       /work/e643/e643/shared/multi_ellip/studies/departing_sphericity_sweep/runs/spheroid_oblate/homogeneous/spheroid_oblate_homogeneous_eps0p03_rho1_E0p5_sep8_run09_impulse_noproj/multiple_body_complete.dat
================================================
