
================ Simulation setup ================
  Run label:         /work/e643/e643/shared/multi_ellip/studies/departing_sphericity_sweep/runs/spheroid_oblate/homogeneous/spheroid_oblate_homogeneous_eps0p03_rho1_E0p5_sep8_run02_impulse_noproj/
  Started:           2026-06-24 02:26:26
  Input file:        /work/e643/e643/shared/multi_ellip/studies/departing_sphericity_sweep/runs/spheroid_oblate/homogeneous/spheroid_oblate_homogeneous_eps0p03_rho1_E0p5_sep8_run02_impulse_noproj/input.txt
  Output file:       /work/e643/e643/shared/multi_ellip/studies/departing_sphericity_sweep/runs/spheroid_oblate/homogeneous/spheroid_oblate_homogeneous_eps0p03_rho1_E0p5_sep8_run02_impulse_noproj/multiple_body_complete.dat
  Bodies:            2
  Fluid density:     1
  Mesh:              ndiv 2 -> 256 triangles / 516 nodes
  Simulated time:    0 -> 100  (dt = 0.05, ~2000 steps)
  Output cadence:    every 1 step(s)
  Output rows:       ~2001
  Progress cadence:  every 100 step(s)
  CPU cores:         256 available, 8 Rayon worker thread(s)
  Strong coupling:   disabled
  Impulse scheme:    enabled
  Hamiltonian step:  disabled
  Hamiltonian midpt: disabled
  Variational step:  disabled
  Energy projection: disabled
  Projection particular metric: Euclidean
  Fluid KE gradient: disabled  (eps = 0.001, scale = 1, linear = 1, angular = 1)
  Fluid KE discrete gradient: disabled
  Impulse pair metric correction: disabled  (mode = pair discrete-gradient, cutoff = all pairs, inner/outer = 0/0, eps = 0.001, linear scale = 1, angular scale = 0)
  Impulse metric correction: disabled  (internal load constraint = disabled)
  Impulse variational defect probe: disabled
  Impulse quadratic pressure: disabled  (scale = 1)
  Added-mass stab:   disabled
  Exact BEM geometry: disabled
  Exact singular BEM: disabled
  Legacy singular SLP diagnostic: disabled
  Phi-dot blend:     0 (off)

  Solver guidance:
    - Strong coupling: use for stiff close-coupled runs; slower but more implicit.
    - Impulse scheme: use when impulse/momentum conservation or KE drift is the focus. Recommended.
    - Added-mass stab: use for higher mesh counts (ndiv > 3) to preserve stability - deprecated.
================================================
Solver starting - good luck!

Initial state:
  Body  1
    density:          1.000000
    shape axes ratio: (1.000000, 1.000000, 0.915142)
    initial KE ratio: 0.500000
    position:         (-4.000000, 0.000000, 0.000000)
    velocity:         (-3.594912, -1.589395, -3.977865)
    angular velocity: (4.970305, 2.770707, -2.664145)
    orientation:      (w=0.537117, i=0.197775, j=0.819214, k=0.035748)
  Body  2
    density:          1.000000
    shape axes ratio: (1.000000, 1.000000, 0.915142)
    initial KE ratio: 0.500000
    position:         (4.000000, 0.000000, 0.000000)
    velocity:         (-3.573383, -1.579876, -3.954042)
    angular velocity: (-4.687868, -3.977408, -1.297126)
    orientation:      (w=-0.818263, i=-0.242214, j=-0.508854, k=-0.113339)

Preparing first step: implicit scheme, no bootstrap passes required.
First step may take longer than later steps.

First step completed in 0.301 s.

Step   100/2000    5.0% | t 5.000 | ETA 3m 6s | step 0.10s | KE 266.5410 | drift -0.80% | fluid 71.5110 | solid 195.0300
  Impulse FP iterations last/mean/max 9/8.19/9
Step   200/2000   10.0% | t 10.000 | ETA 3m 1s | step 0.12s | KE 256.5226 | drift -4.53% | fluid 71.7236 | solid 184.7989
  Impulse FP iterations last/mean/max 9/8.23/9
Step   300/2000   15.0% | t 15.000 | ETA 2m 59s | step 0.13s | KE 245.9787 | drift -8.45% | fluid 71.4321 | solid 174.5466
  Impulse FP iterations last/mean/max 9/8.32/9
Step   400/2000   20.0% | t 20.000 | ETA 2m 52s | step 0.11s | KE 258.6668 | drift -3.73% | fluid 70.8435 | solid 187.8233
  Impulse FP iterations last/mean/max 8/8.35/9
Step   500/2000   25.0% | t 25.000 | ETA 2m 43s | step 0.13s | KE 286.3142 | drift +6.56% | fluid 71.6926 | solid 214.6215
  Impulse FP iterations last/mean/max 9/8.38/9
Step   600/2000   30.0% | t 30.000 | ETA 2m 34s | step 0.11s | KE 316.4499 | drift +17.77% | fluid 70.9517 | solid 245.4982
  Impulse FP iterations last/mean/max 8/8.42/9
Step   700/2000   35.0% | t 35.000 | ETA 2m 25s | step 0.12s | KE 346.5731 | drift +28.98% | fluid 70.7065 | solid 275.8666
  Impulse FP iterations last/mean/max 9/8.47/9
Step   800/2000   40.0% | t 40.000 | ETA 2m 15s | step 0.12s | KE 375.6262 | drift +39.80% | fluid 70.8620 | solid 304.7642
  Impulse FP iterations last/mean/max 9/8.51/9
Step   900/2000   45.0% | t 45.000 | ETA 2m 5s | step 0.13s | KE 402.0413 | drift +49.63% | fluid 71.0580 | solid 330.9833
  Impulse FP iterations last/mean/max 9/8.55/9
Step  1000/2000   50.0% | t 50.000 | ETA 1m 54s | step 0.11s | KE 424.4672 | drift +57.97% | fluid 73.5846 | solid 350.8825
  Impulse FP iterations last/mean/max 8/8.58/9
Step  1100/2000   55.0% | t 55.000 | ETA 1m 43s | step 0.11s | KE 434.6717 | drift +61.77% | fluid 72.9869 | solid 361.6848
  Impulse FP iterations last/mean/max 9/8.61/9
Step  1200/2000   60.0% | t 60.000 | ETA 1m 32s | step 0.12s | KE 429.4386 | drift +59.82% | fluid 71.5333 | solid 357.9053
  Impulse FP iterations last/mean/max 9/8.63/9
Step  1300/2000   65.0% | t 65.000 | ETA 1m 21s | step 0.12s | KE 418.5174 | drift +55.76% | fluid 70.9611 | solid 347.5563
  Impulse FP iterations last/mean/max 9/8.65/9
Step  1400/2000   70.0% | t 70.000 | ETA 1m 9s | step 0.12s | KE 404.5591 | drift +50.56% | fluid 71.6578 | solid 332.9013
  Impulse FP iterations last/mean/max 9/8.66/9
Step  1500/2000   75.0% | t 75.000 | ETA 58s | step 0.12s | KE 387.4567 | drift +44.20% | fluid 71.7312 | solid 315.7256
  Impulse FP iterations last/mean/max 9/8.67/9
Step  1600/2000   80.0% | t 80.000 | ETA 46s | step 0.12s | KE 371.2857 | drift +38.18% | fluid 73.2362 | solid 298.0495
  Impulse FP iterations last/mean/max 9/8.68/9
Step  1700/2000   85.0% | t 85.000 | ETA 34s | step 0.10s | KE 361.9160 | drift +34.69% | fluid 71.2120 | solid 290.7040
  Impulse FP iterations last/mean/max 8/8.67/9
Step  1800/2000   90.0% | t 90.000 | ETA 22s | step 0.07s | KE 355.7730 | drift +32.41% | fluid 70.7309 | solid 285.0421
  Impulse FP iterations last/mean/max 8/8.67/9
Step  1900/2000   95.0% | t 95.000 | ETA 11s | step 0.07s | KE 347.7455 | drift +29.42% | fluid 70.6862 | solid 277.0593
  Impulse FP iterations last/mean/max 8/8.66/9
Solver finished successfully - good job!
Results saved successfully.

================== Run summary ==================
  Bodies:            2
  Triangles / nodes: 256 / 516
  Timesteps:         2000  (dt = 0.05)
  Simulated time:    0 -> 100
  First-step setup:  0.301 s
  Mean time/step:    0.1102 s  (excl. first step)
  Total wall time:   3m 40s
  Impulse FP iters last/mean/max: 8 / 8.636 / 9
  Approx impulse solves/step:     8.636
  Impulse start cache hits/direct: 1999 / 1
  Impulse global drift P/H:       1.559135e-8 / 1.656096e-1
  Impulse per-body max drift P/H: 3.129329e-8 / 5.480026e-3
  CPU cores:         256 available, 8 Rayon worker thread(s)
  Started:           2026-06-24 02:26:26
  Finished:          2026-06-24 02:30:07
  Output file:       /work/e643/e643/shared/multi_ellip/studies/departing_sphericity_sweep/runs/spheroid_oblate/homogeneous/spheroid_oblate_homogeneous_eps0p03_rho1_E0p5_sep8_run02_impulse_noproj/multiple_body_complete.dat
================================================
