
================ Simulation setup ================
  Run label:         /work/e643/e643/shared/multi_ellip/studies/departing_sphericity_sweep/runs/spheroid_oblate/homogeneous/spheroid_oblate_homogeneous_eps0p1_rho1_E0p5_sep8_run04_impulse_noproj/
  Started:           2026-06-24 02:30:08
  Input file:        /work/e643/e643/shared/multi_ellip/studies/departing_sphericity_sweep/runs/spheroid_oblate/homogeneous/spheroid_oblate_homogeneous_eps0p1_rho1_E0p5_sep8_run04_impulse_noproj/input.txt
  Output file:       /work/e643/e643/shared/multi_ellip/studies/departing_sphericity_sweep/runs/spheroid_oblate/homogeneous/spheroid_oblate_homogeneous_eps0p1_rho1_E0p5_sep8_run04_impulse_noproj/multiple_body_complete.dat
  Bodies:            2
  Fluid density:     1
  Mesh:              ndiv 2 -> 256 triangles / 516 nodes
  Simulated time:    0 -> 100  (dt = 0.05, ~2000 steps)
  Output cadence:    every 1 step(s)
  Output rows:       ~2001
  Progress cadence:  every 100 step(s)
  CPU cores:         256 available, 8 Rayon worker thread(s)
  Strong coupling:   disabled
  Impulse scheme:    enabled
  Hamiltonian step:  disabled
  Hamiltonian midpt: disabled
  Variational step:  disabled
  Energy projection: disabled
  Projection particular metric: Euclidean
  Fluid KE gradient: disabled  (eps = 0.001, scale = 1, linear = 1, angular = 1)
  Fluid KE discrete gradient: disabled
  Impulse pair metric correction: disabled  (mode = pair discrete-gradient, cutoff = all pairs, inner/outer = 0/0, eps = 0.001, linear scale = 1, angular scale = 0)
  Impulse metric correction: disabled  (internal load constraint = disabled)
  Impulse variational defect probe: disabled
  Impulse quadratic pressure: disabled  (scale = 1)
  Added-mass stab:   disabled
  Exact BEM geometry: disabled
  Exact singular BEM: disabled
  Legacy singular SLP diagnostic: disabled
  Phi-dot blend:     0 (off)

  Solver guidance:
    - Strong coupling: use for stiff close-coupled runs; slower but more implicit.
    - Impulse scheme: use when impulse/momentum conservation or KE drift is the focus. Recommended.
    - Added-mass stab: use for higher mesh counts (ndiv > 3) to preserve stability - deprecated.
================================================
Solver starting - good luck!

Initial state:
  Body  1
    density:          1.000000
    shape axes ratio: (1.000000, 1.000000, 0.751315)
    initial KE ratio: 0.500000
    position:         (-4.000000, 0.000000, 0.000000)
    velocity:         (2.840917, -2.912934, 4.204487)
    angular velocity: (1.157784, -4.188926, -4.537715)
    orientation:      (w=0.248623, i=-0.251072, j=0.579567, k=0.734338)
  Body  2
    density:          1.000000
    shape axes ratio: (1.000000, 1.000000, 0.751315)
    initial KE ratio: 0.500000
    position:         (4.000000, 0.000000, 0.000000)
    velocity:         (2.874486, -2.947355, 4.254169)
    angular velocity: (3.563078, -1.526869, 4.944852)
    orientation:      (w=-0.321146, i=0.470944, j=0.692104, k=-0.442797)

Preparing first step: implicit scheme, no bootstrap passes required.
First step may take longer than later steps.

First step completed in 0.219 s.

Step   100/2000    5.0% | t 5.000 | ETA 3m 40s | step 0.12s | KE 289.9435 | drift -2.06% | fluid 78.6511 | solid 211.2924
  Impulse FP iterations last/mean/max 10/9.94/10
Step   200/2000   10.0% | t 10.000 | ETA 3m 38s | step 0.12s | KE 288.5830 | drift -2.52% | fluid 80.6996 | solid 207.8835
  Impulse FP iterations last/mean/max 10/9.95/10
Step   300/2000   15.0% | t 15.000 | ETA 3m 32s | step 0.13s | KE 288.7312 | drift -2.47% | fluid 77.3678 | solid 211.3635
  Impulse FP iterations last/mean/max 10/9.94/10
Step   400/2000   20.0% | t 20.000 | ETA 3m 23s | step 0.14s | KE 288.7122 | drift -2.47% | fluid 77.1313 | solid 211.5809
  Impulse FP iterations last/mean/max 10/9.94/10
Step   500/2000   25.0% | t 25.000 | ETA 3m 11s | step 0.13s | KE 288.4167 | drift -2.57% | fluid 81.1775 | solid 207.2391
  Impulse FP iterations last/mean/max 10/9.93/10
Step   600/2000   30.0% | t 30.000 | ETA 3m 0s | step 0.14s | KE 288.3984 | drift -2.58% | fluid 80.7531 | solid 207.6453
  Impulse FP iterations last/mean/max 10/9.94/10
Step   700/2000   35.0% | t 35.000 | ETA 2m 48s | step 0.14s | KE 288.5370 | drift -2.53% | fluid 77.8277 | solid 210.7093
  Impulse FP iterations last/mean/max 10/9.93/10
Step   800/2000   40.0% | t 40.000 | ETA 2m 35s | step 0.13s | KE 288.5260 | drift -2.54% | fluid 78.6817 | solid 209.8444
  Impulse FP iterations last/mean/max 10/9.93/10
Step   900/2000   45.0% | t 45.000 | ETA 2m 22s | step 0.12s | KE 288.4060 | drift -2.58% | fluid 79.9838 | solid 208.4221
  Impulse FP iterations last/mean/max 10/9.93/10
Step  1000/2000   50.0% | t 50.000 | ETA 2m 10s | step 0.13s | KE 288.4873 | drift -2.55% | fluid 77.9263 | solid 210.5610
  Impulse FP iterations last/mean/max 10/9.94/10
Step  1100/2000   55.0% | t 55.000 | ETA 1m 57s | step 0.14s | KE 288.4398 | drift -2.57% | fluid 78.6772 | solid 209.7626
  Impulse FP iterations last/mean/max 10/9.93/10
Step  1200/2000   60.0% | t 60.000 | ETA 1m 44s | step 0.14s | KE 288.3394 | drift -2.60% | fluid 80.7119 | solid 207.6275
  Impulse FP iterations last/mean/max 10/9.94/10
Step  1300/2000   65.0% | t 65.000 | ETA 1m 31s | step 0.14s | KE 288.5723 | drift -2.52% | fluid 77.8592 | solid 210.7131
  Impulse FP iterations last/mean/max 10/9.94/10
Step  1400/2000   70.0% | t 70.000 | ETA 1m 18s | step 0.13s | KE 288.5779 | drift -2.52% | fluid 77.2345 | solid 211.3433
  Impulse FP iterations last/mean/max 9/9.94/10
Step  1500/2000   75.0% | t 75.000 | ETA 1m 5s | step 0.14s | KE 288.3266 | drift -2.60% | fluid 81.1754 | solid 207.1511
  Impulse FP iterations last/mean/max 10/9.94/10
Step  1600/2000   80.0% | t 80.000 | ETA 52s | step 0.12s | KE 288.3369 | drift -2.60% | fluid 81.0953 | solid 207.2416
  Impulse FP iterations last/mean/max 10/9.94/10
Step  1700/2000   85.0% | t 85.000 | ETA 39s | step 0.11s | KE 288.5916 | drift -2.51% | fluid 77.1924 | solid 211.3993
  Impulse FP iterations last/mean/max 10/9.94/10
Step  1800/2000   90.0% | t 90.000 | ETA 25s | step 0.13s | KE 288.5890 | drift -2.52% | fluid 77.9085 | solid 210.6804
  Impulse FP iterations last/mean/max 10/9.94/10
Step  1900/2000   95.0% | t 95.000 | ETA 12s | step 0.11s | KE 288.3676 | drift -2.59% | fluid 80.6851 | solid 207.6825
  Impulse FP iterations last/mean/max 10/9.94/10
Solver finished successfully - good job!
Results saved successfully.

================== Run summary ==================
  Bodies:            2
  Triangles / nodes: 256 / 516
  Timesteps:         2000  (dt = 0.05)
  Simulated time:    0 -> 100
  First-step setup:  0.219 s
  Mean time/step:    0.1285 s  (excl. first step)
  Total wall time:   4m 17s
  Impulse FP iters last/mean/max: 10 / 9.941 / 10
  Approx impulse solves/step:     9.941
  Impulse start cache hits/direct: 1999 / 1
  Impulse global drift P/H:       1.692237e-8 / 1.081921e-2
  Impulse per-body max drift P/H: 3.309835e-8 / 2.197023e-3
  CPU cores:         256 available, 8 Rayon worker thread(s)
  Started:           2026-06-24 02:30:08
  Finished:          2026-06-24 02:34:25
  Output file:       /work/e643/e643/shared/multi_ellip/studies/departing_sphericity_sweep/runs/spheroid_oblate/homogeneous/spheroid_oblate_homogeneous_eps0p1_rho1_E0p5_sep8_run04_impulse_noproj/multiple_body_complete.dat
================================================
