
================ Simulation setup ================
  Run label:         /work/e643/e643/shared/multi_ellip/studies/two_body_paper_sweeps/runs/ellipsoid_1_0p8_0p6/ellipsoid_1_0p8_0p6_rho0p1_E4_sep11_run01_impulse_noproj/
  Started:           2026-06-22 19:54:16
  Input file:        /work/e643/e643/shared/multi_ellip/studies/two_body_paper_sweeps/runs/ellipsoid_1_0p8_0p6/ellipsoid_1_0p8_0p6_rho0p1_E4_sep11_run01_impulse_noproj/input.txt
  Output file:       /work/e643/e643/shared/multi_ellip/studies/two_body_paper_sweeps/runs/ellipsoid_1_0p8_0p6/ellipsoid_1_0p8_0p6_rho0p1_E4_sep11_run01_impulse_noproj/multiple_body_complete.dat
  Bodies:            2
  Fluid density:     1
  Mesh:              ndiv 2 -> 256 triangles / 516 nodes
  Simulated time:    0 -> 100  (dt = 0.05, ~2000 steps)
  Output cadence:    every 1 step(s)
  Output rows:       ~2001
  Progress cadence:  every 100 step(s)
  CPU cores:         256 available, 8 Rayon worker thread(s)
  Strong coupling:   disabled
  Impulse scheme:    enabled
  Hamiltonian step:  disabled
  Hamiltonian midpt: disabled
  Variational step:  disabled
  Energy projection: disabled
  Projection particular metric: Euclidean
  Fluid KE gradient: disabled  (eps = 0.001, scale = 1, linear = 1, angular = 1)
  Fluid KE discrete gradient: disabled
  Impulse pair metric correction: disabled  (mode = pair discrete-gradient, cutoff = all pairs, inner/outer = 0/0, eps = 0.001, linear scale = 1, angular scale = 0)
  Impulse metric correction: disabled  (internal load constraint = disabled)
  Impulse variational defect probe: disabled
  Impulse quadratic pressure: disabled  (scale = 1)
  Added-mass stab:   disabled
  Exact BEM geometry: disabled
  Exact singular BEM: disabled
  Legacy singular SLP diagnostic: disabled
  Phi-dot blend:     0 (off)

  Solver guidance:
    - Strong coupling: use for stiff close-coupled runs; slower but more implicit.
    - Impulse scheme: use when impulse/momentum conservation or KE drift is the focus. Recommended.
    - Added-mass stab: use for higher mesh counts (ndiv > 3) to preserve stability - deprecated.
================================================
Solver starting - good luck!

Initial state:
  Body  1
    density:          0.100000
    shape axes ratio: (1.000000, 0.800000, 0.600000)
    initial KE ratio: 4.000000
    position:         (-5.500000, 0.000000, 0.000000)
    velocity:         (1.108998, -0.832716, -1.265693)
    angular velocity: (-5.761269, 0.997127, -2.300420)
    orientation:      (w=0.447214, i=0.894427, j=0.000000, k=0.000000)
  Body  2
    density:          0.100000
    shape axes ratio: (1.000000, 0.800000, 0.600000)
    initial KE ratio: 4.000000
    position:         (5.500000, 0.000000, 0.000000)
    velocity:         (1.241655, -0.932325, -1.417094)
    angular velocity: (-2.653131, -4.651156, 3.287257)
    orientation:      (w=0.707107, i=0.000000, j=0.707107, k=0.000000)

Preparing first step: implicit scheme, no bootstrap passes required.
First step may take longer than later steps.

First step completed in 0.451 s.

Step   100/2000    5.0% | t 5.000 | ETA 7m 59s | step 0.28s | KE 25.1370 | drift +0.33% | fluid 17.4163 | solid 7.7207
  Impulse FP iterations last/mean/max 20/18.55/22
Step   200/2000   10.0% | t 10.000 | ETA 7m 33s | step 0.25s | KE 25.1577 | drift +0.41% | fluid 17.4219 | solid 7.7358
  Impulse FP iterations last/mean/max 19/18.61/22
Step   300/2000   15.0% | t 15.000 | ETA 7m 4s | step 0.25s | KE 25.2082 | drift +0.61% | fluid 17.9522 | solid 7.2560
  Impulse FP iterations last/mean/max 20/18.65/22
Step   400/2000   20.0% | t 20.000 | ETA 6m 29s | step 0.23s | KE 25.1499 | drift +0.38% | fluid 17.3211 | solid 7.8288
  Impulse FP iterations last/mean/max 20/18.61/22
Step   500/2000   25.0% | t 25.000 | ETA 6m 2s | step 0.22s | KE 25.2208 | drift +0.66% | fluid 18.1195 | solid 7.1013
  Impulse FP iterations last/mean/max 19/18.60/22
Step   600/2000   30.0% | t 30.000 | ETA 5m 35s | step 0.24s | KE 25.2134 | drift +0.63% | fluid 17.8422 | solid 7.3712
  Impulse FP iterations last/mean/max 18/18.57/22
Step   700/2000   35.0% | t 35.000 | ETA 5m 10s | step 0.20s | KE 25.1387 | drift +0.34% | fluid 16.9462 | solid 8.1925
  Impulse FP iterations last/mean/max 18/18.60/22
Step   800/2000   40.0% | t 40.000 | ETA 4m 45s | step 0.21s | KE 25.1690 | drift +0.46% | fluid 17.0524 | solid 8.1167
  Impulse FP iterations last/mean/max 18/18.60/22
Step   900/2000   45.0% | t 45.000 | ETA 4m 21s | step 0.23s | KE 25.1959 | drift +0.56% | fluid 17.9841 | solid 7.2117
  Impulse FP iterations last/mean/max 19/18.61/22
Step  1000/2000   50.0% | t 50.000 | ETA 3m 56s | step 0.21s | KE 25.1892 | drift +0.54% | fluid 17.7317 | solid 7.4575
  Impulse FP iterations last/mean/max 19/18.61/22
Step  1100/2000   55.0% | t 55.000 | ETA 3m 32s | step 0.25s | KE 25.1792 | drift +0.50% | fluid 17.4736 | solid 7.7056
  Impulse FP iterations last/mean/max 19/18.61/22
Step  1200/2000   60.0% | t 60.000 | ETA 3m 8s | step 0.27s | KE 25.2048 | drift +0.60% | fluid 17.6529 | solid 7.5519
  Impulse FP iterations last/mean/max 21/18.62/22
Step  1300/2000   65.0% | t 65.000 | ETA 2m 44s | step 0.20s | KE 25.2108 | drift +0.62% | fluid 17.7200 | solid 7.4909
  Impulse FP iterations last/mean/max 17/18.63/22
Step  1400/2000   70.0% | t 70.000 | ETA 2m 21s | step 0.24s | KE 25.2264 | drift +0.69% | fluid 18.2121 | solid 7.0143
  Impulse FP iterations last/mean/max 18/18.63/22
Step  1500/2000   75.0% | t 75.000 | ETA 1m 57s | step 0.23s | KE 25.2173 | drift +0.65% | fluid 17.8555 | solid 7.3619
  Impulse FP iterations last/mean/max 20/18.63/22
Step  1600/2000   80.0% | t 80.000 | ETA 1m 33s | step 0.20s | KE 25.2070 | drift +0.61% | fluid 18.1227 | solid 7.0844
  Impulse FP iterations last/mean/max 17/18.63/22
Step  1700/2000   85.0% | t 85.000 | ETA 1m 10s | step 0.23s | KE 25.2091 | drift +0.62% | fluid 17.6386 | solid 7.5704
  Impulse FP iterations last/mean/max 21/18.62/22
Step  1800/2000   90.0% | t 90.000 | ETA 46s | step 0.24s | KE 25.2082 | drift +0.61% | fluid 17.5152 | solid 7.6930
  Impulse FP iterations last/mean/max 19/18.62/22
Step  1900/2000   95.0% | t 95.000 | ETA 23s | step 0.27s | KE 25.1727 | drift +0.47% | fluid 17.0560 | solid 8.1167
  Impulse FP iterations last/mean/max 20/18.63/22
Solver finished successfully - good job!
Results saved successfully.

================== Run summary ==================
  Bodies:            2
  Triangles / nodes: 256 / 516
  Timesteps:         2000  (dt = 0.05)
  Simulated time:    0 -> 100
  First-step setup:  0.451 s
  Mean time/step:    0.2330 s  (excl. first step)
  Total wall time:   7m 46s
  Impulse FP iters last/mean/max: 21 / 18.627 / 22
  Approx impulse solves/step:     18.627
  Impulse start cache hits/direct: 1999 / 1
  Impulse global drift P/H:       5.901569e-8 / 2.275886e-3
  Impulse per-body max drift P/H: 7.461747e-8 / 1.637537e-3
  CPU cores:         256 available, 8 Rayon worker thread(s)
  Started:           2026-06-22 19:54:16
  Finished:          2026-06-22 20:02:02
  Output file:       /work/e643/e643/shared/multi_ellip/studies/two_body_paper_sweeps/runs/ellipsoid_1_0p8_0p6/ellipsoid_1_0p8_0p6_rho0p1_E4_sep11_run01_impulse_noproj/multiple_body_complete.dat
================================================
