
================ Simulation setup ================
  Run label:         /work/e643/e643/shared/multi_ellip/studies/two_body_paper_sweeps/runs/ellipsoid_1_0p8_0p6/ellipsoid_1_0p8_0p6_rho4_E30_sep5_run05_impulse_noproj/
  Started:           2026-06-24 01:33:26
  Input file:        /work/e643/e643/shared/multi_ellip/studies/two_body_paper_sweeps/runs/ellipsoid_1_0p8_0p6/ellipsoid_1_0p8_0p6_rho4_E30_sep5_run05_impulse_noproj/input.txt
  Output file:       /work/e643/e643/shared/multi_ellip/studies/two_body_paper_sweeps/runs/ellipsoid_1_0p8_0p6/ellipsoid_1_0p8_0p6_rho4_E30_sep5_run05_impulse_noproj/multiple_body_complete.dat
  Bodies:            2
  Fluid density:     1
  Mesh:              ndiv 2 -> 256 triangles / 516 nodes
  Simulated time:    0 -> 100  (dt = 0.05, ~2000 steps)
  Output cadence:    every 1 step(s)
  Output rows:       ~2001
  Progress cadence:  every 100 step(s)
  CPU cores:         256 available, 8 Rayon worker thread(s)
  Strong coupling:   disabled
  Impulse scheme:    enabled
  Hamiltonian step:  disabled
  Hamiltonian midpt: disabled
  Variational step:  disabled
  Energy projection: disabled
  Projection particular metric: Euclidean
  Fluid KE gradient: disabled  (eps = 0.001, scale = 1, linear = 1, angular = 1)
  Fluid KE discrete gradient: disabled
  Impulse pair metric correction: disabled  (mode = pair discrete-gradient, cutoff = all pairs, inner/outer = 0/0, eps = 0.001, linear scale = 1, angular scale = 0)
  Impulse metric correction: disabled  (internal load constraint = disabled)
  Impulse variational defect probe: disabled
  Impulse quadratic pressure: disabled  (scale = 1)
  Added-mass stab:   disabled
  Exact BEM geometry: disabled
  Exact singular BEM: disabled
  Legacy singular SLP diagnostic: disabled
  Phi-dot blend:     0 (off)

  Solver guidance:
    - Strong coupling: use for stiff close-coupled runs; slower but more implicit.
    - Impulse scheme: use when impulse/momentum conservation or KE drift is the focus. Recommended.
    - Added-mass stab: use for higher mesh counts (ndiv > 3) to preserve stability - deprecated.
================================================
Solver starting - good luck!

Initial state:
  Body  1
    density:          4.000000
    shape axes ratio: (1.000000, 0.800000, 0.600000)
    initial KE ratio: 30.000000
    position:         (-2.500000, 0.000000, 0.000000)
    velocity:         (-0.428904, 0.386790, -0.366809)
    angular velocity: (5.519445, 2.803736, 1.073875)
    orientation:      (w=-0.456324, i=0.651753, j=-0.580441, k=-0.173418)
  Body  2
    density:          4.000000
    shape axes ratio: (1.000000, 0.800000, 0.600000)
    initial KE ratio: 30.000000
    position:         (2.500000, 0.000000, 0.000000)
    velocity:         (-0.425476, 0.383699, -0.363877)
    angular velocity: (5.743580, -2.130317, -1.396944)
    orientation:      (w=-0.584678, i=-0.091271, j=-0.806113, k=-0.001669)

Preparing first step: implicit scheme, no bootstrap passes required.
First step may take longer than later steps.

First step completed in 0.242 s.

Step   100/2000    5.0% | t 5.000 | ETA 3m 40s | step 0.13s | KE 344.2035 | drift -0.01% | fluid 7.8322 | solid 336.3714
  Impulse FP iterations last/mean/max 9/8.94/9
Step   200/2000   10.0% | t 10.000 | ETA 3m 40s | step 0.13s | KE 344.1293 | drift -0.03% | fluid 8.1890 | solid 335.9403
  Impulse FP iterations last/mean/max 9/8.97/9
Step   300/2000   15.0% | t 15.000 | ETA 3m 31s | step 0.13s | KE 344.0713 | drift -0.05% | fluid 7.8647 | solid 336.2066
  Impulse FP iterations last/mean/max 9/8.96/9
Step   400/2000   20.0% | t 20.000 | ETA 3m 20s | step 0.13s | KE 343.9835 | drift -0.07% | fluid 7.2885 | solid 336.6950
  Impulse FP iterations last/mean/max 9/8.96/9
Step   500/2000   25.0% | t 25.000 | ETA 3m 8s | step 0.12s | KE 343.8860 | drift -0.10% | fluid 6.5462 | solid 337.3398
  Impulse FP iterations last/mean/max 9/8.96/9
Step   600/2000   30.0% | t 30.000 | ETA 2m 56s | step 0.12s | KE 343.7886 | drift -0.13% | fluid 5.2641 | solid 338.5246
  Impulse FP iterations last/mean/max 9/8.95/9
Step   700/2000   35.0% | t 35.000 | ETA 2m 44s | step 0.13s | KE 343.6948 | drift -0.16% | fluid 4.4740 | solid 339.2208
  Impulse FP iterations last/mean/max 9/8.95/9
Step   800/2000   40.0% | t 40.000 | ETA 2m 31s | step 0.13s | KE 343.5963 | drift -0.19% | fluid 3.9231 | solid 339.6732
  Impulse FP iterations last/mean/max 9/8.93/9
Step   900/2000   45.0% | t 45.000 | ETA 2m 19s | step 0.14s | KE 343.5269 | drift -0.21% | fluid 4.6012 | solid 338.9256
  Impulse FP iterations last/mean/max 9/8.93/9
Step  1000/2000   50.0% | t 50.000 | ETA 2m 6s | step 0.13s | KE 343.4693 | drift -0.22% | fluid 5.4597 | solid 338.0096
  Impulse FP iterations last/mean/max 9/8.93/9
Step  1100/2000   55.0% | t 55.000 | ETA 1m 54s | step 0.13s | KE 343.3959 | drift -0.24% | fluid 6.8190 | solid 336.5769
  Impulse FP iterations last/mean/max 9/8.93/9
Step  1200/2000   60.0% | t 60.000 | ETA 1m 41s | step 0.13s | KE 343.3803 | drift -0.25% | fluid 7.4552 | solid 335.9251
  Impulse FP iterations last/mean/max 9/8.92/9
Step  1300/2000   65.0% | t 65.000 | ETA 1m 28s | step 0.12s | KE 343.3614 | drift -0.25% | fluid 7.7543 | solid 335.6071
  Impulse FP iterations last/mean/max 9/8.92/9
Step  1400/2000   70.0% | t 70.000 | ETA 1m 16s | step 0.13s | KE 343.3787 | drift -0.25% | fluid 7.6840 | solid 335.6947
  Impulse FP iterations last/mean/max 9/8.91/9
Step  1500/2000   75.0% | t 75.000 | ETA 1m 3s | step 0.13s | KE 343.4193 | drift -0.24% | fluid 6.7601 | solid 336.6592
  Impulse FP iterations last/mean/max 9/8.91/9
Step  1600/2000   80.0% | t 80.000 | ETA 50s | step 0.12s | KE 343.4639 | drift -0.22% | fluid 5.4075 | solid 338.0564
  Impulse FP iterations last/mean/max 8/8.90/9
Step  1700/2000   85.0% | t 85.000 | ETA 38s | step 0.13s | KE 343.5329 | drift -0.20% | fluid 4.4045 | solid 339.1284
  Impulse FP iterations last/mean/max 9/8.90/9
Step  1800/2000   90.0% | t 90.000 | ETA 25s | step 0.13s | KE 343.6124 | drift -0.18% | fluid 4.2737 | solid 339.3386
  Impulse FP iterations last/mean/max 9/8.90/9
Step  1900/2000   95.0% | t 95.000 | ETA 12s | step 0.12s | KE 343.6985 | drift -0.16% | fluid 5.3978 | solid 338.3007
  Impulse FP iterations last/mean/max 9/8.90/9
Solver finished successfully - good job!
Results saved successfully.

================== Run summary ==================
  Bodies:            2
  Triangles / nodes: 256 / 516
  Timesteps:         2000  (dt = 0.05)
  Simulated time:    0 -> 100
  First-step setup:  0.242 s
  Mean time/step:    0.1263 s  (excl. first step)
  Total wall time:   4m 12s
  Impulse FP iters last/mean/max: 9 / 8.893 / 9
  Approx impulse solves/step:     8.894
  Impulse start cache hits/direct: 1999 / 1
  Impulse global drift P/H:       9.402430e-9 / 4.589144e-3
  Impulse per-body max drift P/H: 1.203593e-8 / 7.143181e-3
  CPU cores:         256 available, 8 Rayon worker thread(s)
  Started:           2026-06-24 01:33:26
  Finished:          2026-06-24 01:37:39
  Output file:       /work/e643/e643/shared/multi_ellip/studies/two_body_paper_sweeps/runs/ellipsoid_1_0p8_0p6/ellipsoid_1_0p8_0p6_rho4_E30_sep5_run05_impulse_noproj/multiple_body_complete.dat
================================================
