
================ Simulation setup ================
  Run label:         /work/e643/e643/shared/multi_ellip/studies/departing_sphericity_sweep/runs/spheroid_prolate/homogeneous/spheroid_prolate_homogeneous_eps0p1_rho1_E0p5_sep8_run03_impulse_noproj/
  Started:           2026-06-24 02:30:36
  Input file:        /work/e643/e643/shared/multi_ellip/studies/departing_sphericity_sweep/runs/spheroid_prolate/homogeneous/spheroid_prolate_homogeneous_eps0p1_rho1_E0p5_sep8_run03_impulse_noproj/input.txt
  Output file:       /work/e643/e643/shared/multi_ellip/studies/departing_sphericity_sweep/runs/spheroid_prolate/homogeneous/spheroid_prolate_homogeneous_eps0p1_rho1_E0p5_sep8_run03_impulse_noproj/multiple_body_complete.dat
  Bodies:            2
  Fluid density:     1
  Mesh:              ndiv 2 -> 256 triangles / 516 nodes
  Simulated time:    0 -> 100  (dt = 0.05, ~2000 steps)
  Output cadence:    every 1 step(s)
  Output rows:       ~2001
  Progress cadence:  every 100 step(s)
  CPU cores:         256 available, 8 Rayon worker thread(s)
  Strong coupling:   disabled
  Impulse scheme:    enabled
  Hamiltonian step:  disabled
  Hamiltonian midpt: disabled
  Variational step:  disabled
  Energy projection: disabled
  Projection particular metric: Euclidean
  Fluid KE gradient: disabled  (eps = 0.001, scale = 1, linear = 1, angular = 1)
  Fluid KE discrete gradient: disabled
  Impulse pair metric correction: disabled  (mode = pair discrete-gradient, cutoff = all pairs, inner/outer = 0/0, eps = 0.001, linear scale = 1, angular scale = 0)
  Impulse metric correction: disabled  (internal load constraint = disabled)
  Impulse variational defect probe: disabled
  Impulse quadratic pressure: disabled  (scale = 1)
  Added-mass stab:   disabled
  Exact BEM geometry: disabled
  Exact singular BEM: disabled
  Legacy singular SLP diagnostic: disabled
  Phi-dot blend:     0 (off)

  Solver guidance:
    - Strong coupling: use for stiff close-coupled runs; slower but more implicit.
    - Impulse scheme: use when impulse/momentum conservation or KE drift is the focus. Recommended.
    - Added-mass stab: use for higher mesh counts (ndiv > 3) to preserve stability - deprecated.
================================================
Solver starting - good luck!

Initial state:
  Body  1
    density:          1.000000
    shape axes ratio: (1.000000, 0.751315, 0.751315)
    initial KE ratio: 0.500000
    position:         (-4.000000, 0.000000, 0.000000)
    velocity:         (5.001122, -3.213430, 0.907933)
    angular velocity: (-0.189520, -0.864627, -6.220524)
    orientation:      (w=-0.368953, i=0.425190, j=-0.820031, k=0.103132)
  Body  2
    density:          1.000000
    shape axes ratio: (1.000000, 0.751315, 0.751315)
    initial KE ratio: 0.500000
    position:         (4.000000, 0.000000, 0.000000)
    velocity:         (4.945833, -3.177904, 0.897895)
    angular velocity: (1.775771, 5.978430, -0.763825)
    orientation:      (w=0.706741, i=0.298648, j=-0.549899, k=0.330055)

Preparing first step: implicit scheme, no bootstrap passes required.
First step may take longer than later steps.

First step completed in 0.268 s.

Step   100/2000    5.0% | t 5.000 | ETA 4m 23s | step 0.13s | KE 316.9439 | drift -0.79% | fluid 86.6963 | solid 230.2476
  Impulse FP iterations last/mean/max 9/9.90/10
Step   200/2000   10.0% | t 10.000 | ETA 4m 13s | step 0.14s | KE 317.2705 | drift -0.69% | fluid 90.4097 | solid 226.8607
  Impulse FP iterations last/mean/max 10/9.91/10
Step   300/2000   15.0% | t 15.000 | ETA 4m 0s | step 0.13s | KE 323.5464 | drift +1.27% | fluid 93.3485 | solid 230.1979
  Impulse FP iterations last/mean/max 10/9.92/10
Step   400/2000   20.0% | t 20.000 | ETA 3m 46s | step 0.14s | KE 335.6609 | drift +5.07% | fluid 90.6438 | solid 245.0170
  Impulse FP iterations last/mean/max 10/9.93/10
Step   500/2000   25.0% | t 25.000 | ETA 3m 32s | step 0.14s | KE 338.0676 | drift +5.82% | fluid 98.2620 | solid 239.8057
  Impulse FP iterations last/mean/max 10/9.93/10
Step   600/2000   30.0% | t 30.000 | ETA 3m 18s | step 0.15s | KE 343.2190 | drift +7.43% | fluid 92.5013 | solid 250.7177
  Impulse FP iterations last/mean/max 10/9.93/10
Step   700/2000   35.0% | t 35.000 | ETA 3m 4s | step 0.13s | KE 344.7315 | drift +7.91% | fluid 92.5612 | solid 252.1703
  Impulse FP iterations last/mean/max 9/9.93/10
Step   800/2000   40.0% | t 40.000 | ETA 2m 49s | step 0.14s | KE 343.5667 | drift +7.54% | fluid 93.6718 | solid 249.8948
  Impulse FP iterations last/mean/max 10/9.93/10
Step   900/2000   45.0% | t 45.000 | ETA 2m 36s | step 0.14s | KE 343.5662 | drift +7.54% | fluid 91.6985 | solid 251.8678
  Impulse FP iterations last/mean/max 10/9.92/10
Step  1000/2000   50.0% | t 50.000 | ETA 2m 21s | step 0.12s | KE 340.3811 | drift +6.54% | fluid 98.5090 | solid 241.8721
  Impulse FP iterations last/mean/max 9/9.92/10
Step  1100/2000   55.0% | t 55.000 | ETA 2m 7s | step 0.15s | KE 339.6294 | drift +6.31% | fluid 92.2207 | solid 247.4088
  Impulse FP iterations last/mean/max 10/9.92/10
Step  1200/2000   60.0% | t 60.000 | ETA 1m 53s | step 0.14s | KE 337.7360 | drift +5.72% | fluid 96.3512 | solid 241.3848
  Impulse FP iterations last/mean/max 10/9.91/10
Step  1300/2000   65.0% | t 65.000 | ETA 1m 39s | step 0.14s | KE 336.8186 | drift +5.43% | fluid 90.3777 | solid 246.4409
  Impulse FP iterations last/mean/max 10/9.91/10
Step  1400/2000   70.0% | t 70.000 | ETA 1m 24s | step 0.15s | KE 336.4158 | drift +5.30% | fluid 91.8993 | solid 244.5165
  Impulse FP iterations last/mean/max 10/9.91/10
Step  1500/2000   75.0% | t 75.000 | ETA 1m 10s | step 0.14s | KE 335.4012 | drift +4.99% | fluid 96.8702 | solid 238.5310
  Impulse FP iterations last/mean/max 10/9.91/10
Step  1600/2000   80.0% | t 80.000 | ETA 56s | step 0.13s | KE 336.4946 | drift +5.33% | fluid 86.5925 | solid 249.9021
  Impulse FP iterations last/mean/max 10/9.91/10
Step  1700/2000   85.0% | t 85.000 | ETA 41s | step 0.12s | KE 335.9306 | drift +5.15% | fluid 97.7909 | solid 238.1397
  Impulse FP iterations last/mean/max 9/9.90/10
Step  1800/2000   90.0% | t 90.000 | ETA 27s | step 0.13s | KE 337.2213 | drift +5.56% | fluid 89.5392 | solid 247.6821
  Impulse FP iterations last/mean/max 10/9.90/10
Step  1900/2000   95.0% | t 95.000 | ETA 13s | step 0.14s | KE 337.4500 | drift +5.63% | fluid 92.0455 | solid 245.4046
  Impulse FP iterations last/mean/max 10/9.90/10
Solver finished successfully - good job!
Results saved successfully.

================== Run summary ==================
  Bodies:            2
  Triangles / nodes: 256 / 516
  Timesteps:         2000  (dt = 0.05)
  Simulated time:    0 -> 100
  First-step setup:  0.268 s
  Mean time/step:    0.1365 s  (excl. first step)
  Total wall time:   4m 33s
  Impulse FP iters last/mean/max: 10 / 9.896 / 10
  Approx impulse solves/step:     9.897
  Impulse start cache hits/direct: 1999 / 1
  Impulse global drift P/H:       2.231969e-8 / 2.770168e-2
  Impulse per-body max drift P/H: 2.975871e-8 / 4.769258e-3
  CPU cores:         256 available, 8 Rayon worker thread(s)
  Started:           2026-06-24 02:30:36
  Finished:          2026-06-24 02:35:10
  Output file:       /work/e643/e643/shared/multi_ellip/studies/departing_sphericity_sweep/runs/spheroid_prolate/homogeneous/spheroid_prolate_homogeneous_eps0p1_rho1_E0p5_sep8_run03_impulse_noproj/multiple_body_complete.dat
================================================
