
================ Simulation setup ================
  Run label:         /work/e643/e643/shared/multi_ellip/studies/two_body_paper_sweeps/runs/ellipsoid_1_0p8_0p6/ellipsoid_1_0p8_0p6_rho4_E0p2_sep11_run04_impulse_noproj/
  Started:           2026-06-24 01:24:56
  Input file:        /work/e643/e643/shared/multi_ellip/studies/two_body_paper_sweeps/runs/ellipsoid_1_0p8_0p6/ellipsoid_1_0p8_0p6_rho4_E0p2_sep11_run04_impulse_noproj/input.txt
  Output file:       /work/e643/e643/shared/multi_ellip/studies/two_body_paper_sweeps/runs/ellipsoid_1_0p8_0p6/ellipsoid_1_0p8_0p6_rho4_E0p2_sep11_run04_impulse_noproj/multiple_body_complete.dat
  Bodies:            2
  Fluid density:     1
  Mesh:              ndiv 2 -> 256 triangles / 516 nodes
  Simulated time:    0 -> 100  (dt = 0.05, ~2000 steps)
  Output cadence:    every 1 step(s)
  Output rows:       ~2001
  Progress cadence:  every 100 step(s)
  CPU cores:         256 available, 8 Rayon worker thread(s)
  Strong coupling:   disabled
  Impulse scheme:    enabled
  Hamiltonian step:  disabled
  Hamiltonian midpt: disabled
  Variational step:  disabled
  Energy projection: disabled
  Projection particular metric: Euclidean
  Fluid KE gradient: disabled  (eps = 0.001, scale = 1, linear = 1, angular = 1)
  Fluid KE discrete gradient: disabled
  Impulse pair metric correction: disabled  (mode = pair discrete-gradient, cutoff = all pairs, inner/outer = 0/0, eps = 0.001, linear scale = 1, angular scale = 0)
  Impulse metric correction: disabled  (internal load constraint = disabled)
  Impulse variational defect probe: disabled
  Impulse quadratic pressure: disabled  (scale = 1)
  Added-mass stab:   disabled
  Exact BEM geometry: disabled
  Exact singular BEM: disabled
  Legacy singular SLP diagnostic: disabled
  Phi-dot blend:     0 (off)

  Solver guidance:
    - Strong coupling: use for stiff close-coupled runs; slower but more implicit.
    - Impulse scheme: use when impulse/momentum conservation or KE drift is the focus. Recommended.
    - Added-mass stab: use for higher mesh counts (ndiv > 3) to preserve stability - deprecated.
================================================
Solver starting - good luck!

Initial state:
  Body  1
    density:          4.000000
    shape axes ratio: (1.000000, 0.800000, 0.600000)
    initial KE ratio: 0.200000
    position:         (-5.500000, 0.000000, 0.000000)
    velocity:         (-5.490583, -0.434101, 8.124651)
    angular velocity: (1.055618, 4.211986, 4.541285)
    orientation:      (w=0.042325, i=0.895535, j=-0.423783, k=0.128974)
  Body  2
    density:          4.000000
    shape axes ratio: (1.000000, 0.800000, 0.600000)
    initial KE ratio: 0.200000
    position:         (5.500000, 0.000000, 0.000000)
    velocity:         (-4.756235, -0.376041, 7.038006)
    angular velocity: (-5.260244, -3.113551, 1.453976)
    orientation:      (w=-0.333039, i=-0.141917, j=0.691192, k=0.625458)

Preparing first step: implicit scheme, no bootstrap passes required.
First step may take longer than later steps.

First step completed in 0.282 s.

Step   100/2000    5.0% | t 5.000 | ETA 3m 58s | step 0.14s | KE 1924.4272 | drift +0.04% | fluid 273.0366 | solid 1651.3905
  Impulse FP iterations last/mean/max 9/8.92/9
Step   200/2000   10.0% | t 10.000 | ETA 3m 47s | step 0.13s | KE 1925.5990 | drift +0.10% | fluid 241.3829 | solid 1684.2162
  Impulse FP iterations last/mean/max 9/8.92/10
Step   300/2000   15.0% | t 15.000 | ETA 3m 35s | step 0.12s | KE 1926.9351 | drift +0.17% | fluid 197.4631 | solid 1729.4720
  Impulse FP iterations last/mean/max 8/8.93/10
Step   400/2000   20.0% | t 20.000 | ETA 3m 23s | step 0.14s | KE 1926.5651 | drift +0.15% | fluid 213.9584 | solid 1712.6067
  Impulse FP iterations last/mean/max 9/8.94/10
Step   500/2000   25.0% | t 25.000 | ETA 3m 10s | step 0.12s | KE 1925.1174 | drift +0.07% | fluid 240.1148 | solid 1685.0026
  Impulse FP iterations last/mean/max 9/8.94/10
Step   600/2000   30.0% | t 30.000 | ETA 2m 58s | step 0.12s | KE 1926.0668 | drift +0.12% | fluid 221.4739 | solid 1704.5930
  Impulse FP iterations last/mean/max 9/8.95/10
Step   700/2000   35.0% | t 35.000 | ETA 2m 45s | step 0.13s | KE 1926.5845 | drift +0.15% | fluid 231.5535 | solid 1695.0310
  Impulse FP iterations last/mean/max 9/8.94/10
Step   800/2000   40.0% | t 40.000 | ETA 2m 32s | step 0.13s | KE 1926.2992 | drift +0.13% | fluid 233.7800 | solid 1692.5192
  Impulse FP iterations last/mean/max 9/8.94/10
Step   900/2000   45.0% | t 45.000 | ETA 2m 20s | step 0.12s | KE 1926.1836 | drift +0.13% | fluid 203.4156 | solid 1722.7680
  Impulse FP iterations last/mean/max 9/8.94/10
Step  1000/2000   50.0% | t 50.000 | ETA 2m 7s | step 0.13s | KE 1926.5173 | drift +0.15% | fluid 199.5778 | solid 1726.9395
  Impulse FP iterations last/mean/max 9/8.94/10
Step  1100/2000   55.0% | t 55.000 | ETA 1m 54s | step 0.13s | KE 1927.1647 | drift +0.18% | fluid 203.5340 | solid 1723.6306
  Impulse FP iterations last/mean/max 9/8.94/10
Step  1200/2000   60.0% | t 60.000 | ETA 1m 41s | step 0.13s | KE 1926.3025 | drift +0.13% | fluid 217.6747 | solid 1708.6278
  Impulse FP iterations last/mean/max 9/8.94/10
Step  1300/2000   65.0% | t 65.000 | ETA 1m 29s | step 0.13s | KE 1925.3482 | drift +0.08% | fluid 248.8110 | solid 1676.5372
  Impulse FP iterations last/mean/max 9/8.94/10
Step  1400/2000   70.0% | t 70.000 | ETA 1m 16s | step 0.13s | KE 1926.4894 | drift +0.14% | fluid 232.5471 | solid 1693.9423
  Impulse FP iterations last/mean/max 9/8.94/10
Step  1500/2000   75.0% | t 75.000 | ETA 1m 3s | step 0.12s | KE 1926.3318 | drift +0.14% | fluid 208.0807 | solid 1718.2510
  Impulse FP iterations last/mean/max 9/8.94/10
Step  1600/2000   80.0% | t 80.000 | ETA 50s | step 0.13s | KE 1925.7588 | drift +0.11% | fluid 217.7633 | solid 1707.9955
  Impulse FP iterations last/mean/max 9/8.94/10
Step  1700/2000   85.0% | t 85.000 | ETA 37s | step 0.12s | KE 1926.0443 | drift +0.12% | fluid 231.7957 | solid 1694.2486
  Impulse FP iterations last/mean/max 9/8.94/10
Step  1800/2000   90.0% | t 90.000 | ETA 25s | step 0.11s | KE 1926.3942 | drift +0.14% | fluid 220.8863 | solid 1705.5079
  Impulse FP iterations last/mean/max 9/8.94/10
Step  1900/2000   95.0% | t 95.000 | ETA 12s | step 0.10s | KE 1925.4650 | drift +0.09% | fluid 240.2904 | solid 1685.1746
  Impulse FP iterations last/mean/max 9/8.94/10
Solver finished successfully - good job!
Results saved successfully.

================== Run summary ==================
  Bodies:            2
  Triangles / nodes: 256 / 516
  Timesteps:         2000  (dt = 0.05)
  Simulated time:    0 -> 100
  First-step setup:  0.282 s
  Mean time/step:    0.1232 s  (excl. first step)
  Total wall time:   4m 6s
  Impulse FP iters last/mean/max: 9 / 8.941 / 10
  Approx impulse solves/step:     8.942
  Impulse start cache hits/direct: 1999 / 1
  Impulse global drift P/H:       2.771262e-9 / 5.130404e-3
  Impulse per-body max drift P/H: 4.265294e-9 / 1.519338e-3
  CPU cores:         256 available, 8 Rayon worker thread(s)
  Started:           2026-06-24 01:24:56
  Finished:          2026-06-24 01:29:03
  Output file:       /work/e643/e643/shared/multi_ellip/studies/two_body_paper_sweeps/runs/ellipsoid_1_0p8_0p6/ellipsoid_1_0p8_0p6_rho4_E0p2_sep11_run04_impulse_noproj/multiple_body_complete.dat
================================================
