
================ Simulation setup ================
  Run label:         /work/e643/e643/shared/multi_ellip/studies/two_body_paper_sweeps/runs/spheroid_1_0p7_0p7/spheroid_1_0p7_0p7_rho4_E11_sep3_run04_impulse_noproj/
  Started:           2026-06-24 01:25:49
  Input file:        /work/e643/e643/shared/multi_ellip/studies/two_body_paper_sweeps/runs/spheroid_1_0p7_0p7/spheroid_1_0p7_0p7_rho4_E11_sep3_run04_impulse_noproj/input.txt
  Output file:       /work/e643/e643/shared/multi_ellip/studies/two_body_paper_sweeps/runs/spheroid_1_0p7_0p7/spheroid_1_0p7_0p7_rho4_E11_sep3_run04_impulse_noproj/multiple_body_complete.dat
  Bodies:            2
  Fluid density:     1
  Mesh:              ndiv 2 -> 256 triangles / 516 nodes
  Simulated time:    0 -> 100  (dt = 0.05, ~2000 steps)
  Output cadence:    every 1 step(s)
  Output rows:       ~2001
  Progress cadence:  every 100 step(s)
  CPU cores:         256 available, 8 Rayon worker thread(s)
  Strong coupling:   disabled
  Impulse scheme:    enabled
  Hamiltonian step:  disabled
  Hamiltonian midpt: disabled
  Variational step:  disabled
  Energy projection: disabled
  Projection particular metric: Euclidean
  Fluid KE gradient: disabled  (eps = 0.001, scale = 1, linear = 1, angular = 1)
  Fluid KE discrete gradient: disabled
  Impulse pair metric correction: disabled  (mode = pair discrete-gradient, cutoff = all pairs, inner/outer = 0/0, eps = 0.001, linear scale = 1, angular scale = 0)
  Impulse metric correction: disabled  (internal load constraint = disabled)
  Impulse variational defect probe: disabled
  Impulse quadratic pressure: disabled  (scale = 1)
  Added-mass stab:   disabled
  Exact BEM geometry: disabled
  Exact singular BEM: disabled
  Legacy singular SLP diagnostic: disabled
  Phi-dot blend:     0 (off)

  Solver guidance:
    - Strong coupling: use for stiff close-coupled runs; slower but more implicit.
    - Impulse scheme: use when impulse/momentum conservation or KE drift is the focus. Recommended.
    - Added-mass stab: use for higher mesh counts (ndiv > 3) to preserve stability - deprecated.
================================================
Solver starting - good luck!

Initial state:
  Body  1
    density:          4.000000
    shape axes ratio: (1.000000, 0.700000, 0.700000)
    initial KE ratio: 11.000000
    position:         (-1.500000, 0.000000, 0.000000)
    velocity:         (-0.101408, 1.017175, 0.770071)
    angular velocity: (2.356084, 5.602795, -1.592473)
    orientation:      (w=0.089268, i=-0.713338, j=0.380105, k=0.581980)
  Body  2
    density:          4.000000
    shape axes ratio: (1.000000, 0.700000, 0.700000)
    initial KE ratio: 11.000000
    position:         (1.500000, 0.000000, 0.000000)
    velocity:         (-0.100861, 1.011687, 0.765915)
    angular velocity: (2.594744, 2.144135, 5.305507)
    orientation:      (w=0.862620, i=0.465602, j=-0.196346, k=0.023459)

Preparing first step: implicit scheme, no bootstrap passes required.
First step may take longer than later steps.

First step completed in 0.308 s.

Step   100/2000    5.0% | t 5.000 | ETA 3m 43s | step 0.12s | KE 330.4206 | drift +0.03% | fluid 8.5606 | solid 321.8601
  Impulse FP iterations last/mean/max 8/8.15/9
Step   200/2000   10.0% | t 10.000 | ETA 3m 32s | step 0.14s | KE 331.4982 | drift +0.35% | fluid 8.9530 | solid 322.5452
  Impulse FP iterations last/mean/max 9/8.18/9
Step   300/2000   15.0% | t 15.000 | ETA 3m 21s | step 0.11s | KE 332.7324 | drift +0.73% | fluid 9.0534 | solid 323.6790
  Impulse FP iterations last/mean/max 8/8.18/9
Step   400/2000   20.0% | t 20.000 | ETA 3m 9s | step 0.11s | KE 334.7530 | drift +1.34% | fluid 8.4272 | solid 326.3259
  Impulse FP iterations last/mean/max 8/8.19/9
Step   500/2000   25.0% | t 25.000 | ETA 2m 57s | step 0.11s | KE 336.9314 | drift +2.00% | fluid 9.1663 | solid 327.7651
  Impulse FP iterations last/mean/max 8/8.20/9
Step   600/2000   30.0% | t 30.000 | ETA 2m 45s | step 0.12s | KE 338.8436 | drift +2.58% | fluid 9.5465 | solid 329.2971
  Impulse FP iterations last/mean/max 8/8.20/9
Step   700/2000   35.0% | t 35.000 | ETA 2m 33s | step 0.12s | KE 340.9071 | drift +3.20% | fluid 9.2411 | solid 331.6660
  Impulse FP iterations last/mean/max 8/8.18/9
Step   800/2000   40.0% | t 40.000 | ETA 2m 21s | step 0.11s | KE 342.8588 | drift +3.79% | fluid 9.0015 | solid 333.8573
  Impulse FP iterations last/mean/max 8/8.16/9
Step   900/2000   45.0% | t 45.000 | ETA 2m 9s | step 0.11s | KE 344.6774 | drift +4.34% | fluid 8.9818 | solid 335.6957
  Impulse FP iterations last/mean/max 8/8.15/9
Step  1000/2000   50.0% | t 50.000 | ETA 1m 57s | step 0.12s | KE 346.2576 | drift +4.82% | fluid 8.7762 | solid 337.4815
  Impulse FP iterations last/mean/max 8/8.13/9
Step  1100/2000   55.0% | t 55.000 | ETA 1m 45s | step 0.12s | KE 347.5898 | drift +5.22% | fluid 8.8773 | solid 338.7125
  Impulse FP iterations last/mean/max 8/8.11/9
Step  1200/2000   60.0% | t 60.000 | ETA 1m 33s | step 0.12s | KE 348.7146 | drift +5.56% | fluid 9.3733 | solid 339.3413
  Impulse FP iterations last/mean/max 8/8.10/9
Step  1300/2000   65.0% | t 65.000 | ETA 1m 21s | step 0.11s | KE 349.6897 | drift +5.86% | fluid 9.5153 | solid 340.1744
  Impulse FP iterations last/mean/max 8/8.09/9
Step  1400/2000   70.0% | t 70.000 | ETA 1m 10s | step 0.11s | KE 350.5191 | drift +6.11% | fluid 9.7017 | solid 340.8174
  Impulse FP iterations last/mean/max 8/8.07/9
Step  1500/2000   75.0% | t 75.000 | ETA 58s | step 0.11s | KE 351.2416 | drift +6.33% | fluid 9.6230 | solid 341.6186
  Impulse FP iterations last/mean/max 8/8.05/9
Step  1600/2000   80.0% | t 80.000 | ETA 46s | step 0.10s | KE 351.8525 | drift +6.51% | fluid 9.6247 | solid 342.2278
  Impulse FP iterations last/mean/max 7/8.02/9
Step  1700/2000   85.0% | t 85.000 | ETA 34s | step 0.10s | KE 352.3838 | drift +6.67% | fluid 9.3592 | solid 343.0246
  Impulse FP iterations last/mean/max 7/8.00/9
Step  1800/2000   90.0% | t 90.000 | ETA 22s | step 0.07s | KE 352.8301 | drift +6.81% | fluid 9.2627 | solid 343.5674
  Impulse FP iterations last/mean/max 7/7.97/9
Step  1900/2000   95.0% | t 95.000 | ETA 11s | step 0.07s | KE 353.2121 | drift +6.93% | fluid 8.9722 | solid 344.2400
  Impulse FP iterations last/mean/max 8/7.94/9
Solver finished successfully - good job!
Results saved successfully.

================== Run summary ==================
  Bodies:            2
  Triangles / nodes: 256 / 516
  Timesteps:         2000  (dt = 0.05)
  Simulated time:    0 -> 100
  First-step setup:  0.308 s
  Mean time/step:    0.1091 s  (excl. first step)
  Total wall time:   3m 38s
  Impulse FP iters last/mean/max: 8 / 7.910 / 9
  Approx impulse solves/step:     7.911
  Impulse start cache hits/direct: 1999 / 1
  Impulse global drift P/H:       1.013107e-8 / 6.305085e-3
  Impulse per-body max drift P/H: 3.106845e-8 / 6.235188e-3
  CPU cores:         256 available, 8 Rayon worker thread(s)
  Started:           2026-06-24 01:25:49
  Finished:          2026-06-24 01:29:28
  Output file:       /work/e643/e643/shared/multi_ellip/studies/two_body_paper_sweeps/runs/spheroid_1_0p7_0p7/spheroid_1_0p7_0p7_rho4_E11_sep3_run04_impulse_noproj/multiple_body_complete.dat
================================================
