
================ Simulation setup ================
  Run label:         /work/e643/e643/shared/multi_ellip/studies/departing_sphericity_sweep/runs/triaxial/homogeneous/triaxial_homogeneous_eps0p03_rho1_E0p5_sep8_run04_impulse_noproj/
  Started:           2026-06-24 02:26:27
  Input file:        /work/e643/e643/shared/multi_ellip/studies/departing_sphericity_sweep/runs/triaxial/homogeneous/triaxial_homogeneous_eps0p03_rho1_E0p5_sep8_run04_impulse_noproj/input.txt
  Output file:       /work/e643/e643/shared/multi_ellip/studies/departing_sphericity_sweep/runs/triaxial/homogeneous/triaxial_homogeneous_eps0p03_rho1_E0p5_sep8_run04_impulse_noproj/multiple_body_complete.dat
  Bodies:            2
  Fluid density:     1
  Mesh:              ndiv 2 -> 256 triangles / 516 nodes
  Simulated time:    0 -> 100  (dt = 0.05, ~2000 steps)
  Output cadence:    every 1 step(s)
  Output rows:       ~2001
  Progress cadence:  every 100 step(s)
  CPU cores:         256 available, 8 Rayon worker thread(s)
  Strong coupling:   disabled
  Impulse scheme:    enabled
  Hamiltonian step:  disabled
  Hamiltonian midpt: disabled
  Variational step:  disabled
  Energy projection: disabled
  Projection particular metric: Euclidean
  Fluid KE gradient: disabled  (eps = 0.001, scale = 1, linear = 1, angular = 1)
  Fluid KE discrete gradient: disabled
  Impulse pair metric correction: disabled  (mode = pair discrete-gradient, cutoff = all pairs, inner/outer = 0/0, eps = 0.001, linear scale = 1, angular scale = 0)
  Impulse metric correction: disabled  (internal load constraint = disabled)
  Impulse variational defect probe: disabled
  Impulse quadratic pressure: disabled  (scale = 1)
  Added-mass stab:   disabled
  Exact BEM geometry: disabled
  Exact singular BEM: disabled
  Legacy singular SLP diagnostic: disabled
  Phi-dot blend:     0 (off)

  Solver guidance:
    - Strong coupling: use for stiff close-coupled runs; slower but more implicit.
    - Impulse scheme: use when impulse/momentum conservation or KE drift is the focus. Recommended.
    - Added-mass stab: use for higher mesh counts (ndiv > 3) to preserve stability - deprecated.
================================================
Solver starting - good luck!

Initial state:
  Body  1
    density:          1.000000
    shape axes ratio: (1.000000, 0.970874, 0.942596)
    initial KE ratio: 0.500000
    position:         (-4.000000, 0.000000, 0.000000)
    velocity:         (-4.538675, 0.555337, 3.183594)
    angular velocity: (5.627749, -0.326011, 2.774991)
    orientation:      (w=0.482267, i=-0.348994, j=0.403875, k=-0.694627)
  Body  2
    density:          1.000000
    shape axes ratio: (1.000000, 0.970874, 0.942596)
    initial KE ratio: 0.500000
    position:         (4.000000, 0.000000, 0.000000)
    velocity:         (-4.594475, 0.562164, 3.222734)
    angular velocity: (3.396210, -2.856583, -4.447933)
    orientation:      (w=-0.252935, i=0.457233, j=0.644129, k=0.558623)

Preparing first step: implicit scheme, no bootstrap passes required.
First step may take longer than later steps.

First step completed in 0.329 s.

Step   100/2000    5.0% | t 5.000 | ETA 3m 36s | step 0.12s | KE 264.9343 | drift -1.41% | fluid 70.9063 | solid 194.0280
  Impulse FP iterations last/mean/max 8/7.97/8
Step   200/2000   10.0% | t 10.000 | ETA 3m 24s | step 0.09s | KE 256.1306 | drift -4.68% | fluid 70.7367 | solid 185.3938
  Impulse FP iterations last/mean/max 7/7.98/8
Step   300/2000   15.0% | t 15.000 | ETA 3m 13s | step 0.12s | KE 264.3420 | drift -1.63% | fluid 70.7836 | solid 193.5584
  Impulse FP iterations last/mean/max 8/7.98/8
Step   400/2000   20.0% | t 20.000 | ETA 3m 2s | step 0.11s | KE 268.8307 | drift +0.04% | fluid 71.0757 | solid 197.7550
  Impulse FP iterations last/mean/max 8/7.99/8
Step   500/2000   25.0% | t 25.000 | ETA 2m 50s | step 0.12s | KE 265.9593 | drift -1.02% | fluid 70.7487 | solid 195.2106
  Impulse FP iterations last/mean/max 8/7.98/8
Step   600/2000   30.0% | t 30.000 | ETA 2m 39s | step 0.12s | KE 261.0341 | drift -2.86% | fluid 71.0286 | solid 190.0055
  Impulse FP iterations last/mean/max 8/7.98/8
Step   700/2000   35.0% | t 35.000 | ETA 2m 27s | step 0.11s | KE 258.9666 | drift -3.63% | fluid 70.4546 | solid 188.5119
  Impulse FP iterations last/mean/max 8/7.98/8
Step   800/2000   40.0% | t 40.000 | ETA 2m 16s | step 0.12s | KE 267.4826 | drift -0.46% | fluid 70.6319 | solid 196.8507
  Impulse FP iterations last/mean/max 8/7.99/8
Step   900/2000   45.0% | t 45.000 | ETA 2m 5s | step 0.11s | KE 270.5382 | drift +0.68% | fluid 70.4424 | solid 200.0958
  Impulse FP iterations last/mean/max 8/7.99/8
Step  1000/2000   50.0% | t 50.000 | ETA 1m 53s | step 0.12s | KE 258.7680 | drift -3.70% | fluid 70.8746 | solid 187.8934
  Impulse FP iterations last/mean/max 8/7.99/8
Step  1100/2000   55.0% | t 55.000 | ETA 1m 42s | step 0.11s | KE 259.0904 | drift -3.58% | fluid 71.0757 | solid 188.0147
  Impulse FP iterations last/mean/max 8/7.99/8
Step  1200/2000   60.0% | t 60.000 | ETA 1m 31s | step 0.12s | KE 266.2344 | drift -0.92% | fluid 71.0094 | solid 195.2250
  Impulse FP iterations last/mean/max 8/7.99/8
Step  1300/2000   65.0% | t 65.000 | ETA 1m 19s | step 0.11s | KE 265.7956 | drift -1.09% | fluid 70.6784 | solid 195.1172
  Impulse FP iterations last/mean/max 8/7.99/8
Step  1400/2000   70.0% | t 70.000 | ETA 1m 8s | step 0.11s | KE 263.4306 | drift -1.97% | fluid 70.8706 | solid 192.5600
  Impulse FP iterations last/mean/max 8/7.99/8
Step  1500/2000   75.0% | t 75.000 | ETA 56s | step 0.11s | KE 258.7577 | drift -3.70% | fluid 71.2242 | solid 187.5335
  Impulse FP iterations last/mean/max 8/7.99/8
Step  1600/2000   80.0% | t 80.000 | ETA 45s | step 0.10s | KE 261.4470 | drift -2.70% | fluid 71.0058 | solid 190.4412
  Impulse FP iterations last/mean/max 8/7.99/8
Step  1700/2000   85.0% | t 85.000 | ETA 34s | step 0.10s | KE 266.5311 | drift -0.81% | fluid 70.8947 | solid 195.6365
  Impulse FP iterations last/mean/max 8/7.99/8
Step  1800/2000   90.0% | t 90.000 | ETA 22s | step 0.10s | KE 261.5845 | drift -2.65% | fluid 70.6803 | solid 190.9043
  Impulse FP iterations last/mean/max 8/7.99/8
Step  1900/2000   95.0% | t 95.000 | ETA 11s | step 0.08s | KE 258.6913 | drift -3.73% | fluid 70.5866 | solid 188.1047
  Impulse FP iterations last/mean/max 8/7.99/8
Solver finished successfully - good job!
Results saved successfully.

================== Run summary ==================
  Bodies:            2
  Triangles / nodes: 256 / 516
  Timesteps:         2000  (dt = 0.05)
  Simulated time:    0 -> 100
  First-step setup:  0.329 s
  Mean time/step:    0.1101 s  (excl. first step)
  Total wall time:   3m 40s
  Impulse FP iters last/mean/max: 8 / 7.989 / 8
  Approx impulse solves/step:     7.989
  Impulse start cache hits/direct: 1999 / 1
  Impulse global drift P/H:       1.072801e-8 / 3.216191e-2
  Impulse per-body max drift P/H: 1.429836e-8 / 4.114133e-3
  CPU cores:         256 available, 8 Rayon worker thread(s)
  Started:           2026-06-24 02:26:27
  Finished:          2026-06-24 02:30:08
  Output file:       /work/e643/e643/shared/multi_ellip/studies/departing_sphericity_sweep/runs/triaxial/homogeneous/triaxial_homogeneous_eps0p03_rho1_E0p5_sep8_run04_impulse_noproj/multiple_body_complete.dat
================================================
