
================ Simulation setup ================
  Run label:         /work/e643/e643/shared/multi_ellip/studies/two_body_paper_sweeps/runs/spheroid_1_0p7_0p7/spheroid_1_0p7_0p7_rho1_E4_sep5_run03_impulse_noproj/
  Started:           2026-06-24 01:34:41
  Input file:        /work/e643/e643/shared/multi_ellip/studies/two_body_paper_sweeps/runs/spheroid_1_0p7_0p7/spheroid_1_0p7_0p7_rho1_E4_sep5_run03_impulse_noproj/input.txt
  Output file:       /work/e643/e643/shared/multi_ellip/studies/two_body_paper_sweeps/runs/spheroid_1_0p7_0p7/spheroid_1_0p7_0p7_rho1_E4_sep5_run03_impulse_noproj/multiple_body_complete.dat
  Bodies:            2
  Fluid density:     1
  Mesh:              ndiv 2 -> 256 triangles / 516 nodes
  Simulated time:    0 -> 100  (dt = 0.05, ~2000 steps)
  Output cadence:    every 1 step(s)
  Output rows:       ~2001
  Progress cadence:  every 100 step(s)
  CPU cores:         256 available, 8 Rayon worker thread(s)
  Strong coupling:   disabled
  Impulse scheme:    enabled
  Hamiltonian step:  disabled
  Hamiltonian midpt: disabled
  Variational step:  disabled
  Energy projection: disabled
  Projection particular metric: Euclidean
  Fluid KE gradient: disabled  (eps = 0.001, scale = 1, linear = 1, angular = 1)
  Fluid KE discrete gradient: disabled
  Impulse pair metric correction: disabled  (mode = pair discrete-gradient, cutoff = all pairs, inner/outer = 0/0, eps = 0.001, linear scale = 1, angular scale = 0)
  Impulse metric correction: disabled  (internal load constraint = disabled)
  Impulse variational defect probe: disabled
  Impulse quadratic pressure: disabled  (scale = 1)
  Added-mass stab:   disabled
  Exact BEM geometry: disabled
  Exact singular BEM: disabled
  Legacy singular SLP diagnostic: disabled
  Phi-dot blend:     0 (off)

  Solver guidance:
    - Strong coupling: use for stiff close-coupled runs; slower but more implicit.
    - Impulse scheme: use when impulse/momentum conservation or KE drift is the focus. Recommended.
    - Added-mass stab: use for higher mesh counts (ndiv > 3) to preserve stability - deprecated.
================================================
Solver starting - good luck!

Initial state:
  Body  1
    density:          1.000000
    shape axes ratio: (1.000000, 0.700000, 0.700000)
    initial KE ratio: 4.000000
    position:         (-2.500000, 0.000000, 0.000000)
    velocity:         (-1.072847, -1.791669, 0.594232)
    angular velocity: (0.660301, 2.503619, -5.724885)
    orientation:      (w=-0.623884, i=0.636422, j=-0.301411, k=0.338949)
  Body  2
    density:          1.000000
    shape axes ratio: (1.000000, 0.700000, 0.700000)
    initial KE ratio: 4.000000
    position:         (2.500000, 0.000000, 0.000000)
    velocity:         (-1.061703, -1.773057, 0.588059)
    angular velocity: (1.676542, -3.275361, -5.093097)
    orientation:      (w=0.074370, i=-0.560268, j=0.749844, k=0.343951)

Preparing first step: implicit scheme, no bootstrap passes required.
First step may take longer than later steps.

First step completed in 0.343 s.

Step   100/2000    5.0% | t 5.000 | ETA 4m 29s | step 0.15s | KE 113.3511 | drift +6.82% | fluid 16.0852 | solid 97.2660
  Impulse FP iterations last/mean/max 10/9.89/10
Step   200/2000   10.0% | t 10.000 | ETA 4m 15s | step 0.14s | KE 117.6345 | drift +10.86% | fluid 16.2144 | solid 101.4201
  Impulse FP iterations last/mean/max 10/9.86/10
Step   300/2000   15.0% | t 15.000 | ETA 4m 1s | step 0.13s | KE 120.1314 | drift +13.21% | fluid 15.0246 | solid 105.1069
  Impulse FP iterations last/mean/max 9/9.87/10
Step   400/2000   20.0% | t 20.000 | ETA 3m 47s | step 0.14s | KE 121.3287 | drift +14.34% | fluid 16.4412 | solid 104.8876
  Impulse FP iterations last/mean/max 10/9.89/10
Step   500/2000   25.0% | t 25.000 | ETA 3m 32s | step 0.15s | KE 121.8759 | drift +14.86% | fluid 16.6689 | solid 105.2070
  Impulse FP iterations last/mean/max 10/9.89/10
Step   600/2000   30.0% | t 30.000 | ETA 3m 18s | step 0.14s | KE 122.1792 | drift +15.14% | fluid 15.4899 | solid 106.6893
  Impulse FP iterations last/mean/max 10/9.89/10
Step   700/2000   35.0% | t 35.000 | ETA 3m 4s | step 0.13s | KE 122.1683 | drift +15.13% | fluid 17.0115 | solid 105.1567
  Impulse FP iterations last/mean/max 9/9.89/10
Step   800/2000   40.0% | t 40.000 | ETA 2m 49s | step 0.14s | KE 122.4277 | drift +15.38% | fluid 16.0594 | solid 106.3683
  Impulse FP iterations last/mean/max 9/9.88/10
Step   900/2000   45.0% | t 45.000 | ETA 2m 35s | step 0.14s | KE 122.6605 | drift +15.60% | fluid 15.6027 | solid 107.0578
  Impulse FP iterations last/mean/max 10/9.86/10
Step  1000/2000   50.0% | t 50.000 | ETA 2m 20s | step 0.14s | KE 122.8033 | drift +15.73% | fluid 16.2271 | solid 106.5762
  Impulse FP iterations last/mean/max 10/9.83/10
Step  1100/2000   55.0% | t 55.000 | ETA 2m 6s | step 0.14s | KE 123.0236 | drift +15.94% | fluid 16.0497 | solid 106.9739
  Impulse FP iterations last/mean/max 10/9.80/10
Step  1200/2000   60.0% | t 60.000 | ETA 1m 51s | step 0.13s | KE 123.1785 | drift +16.08% | fluid 16.3517 | solid 106.8268
  Impulse FP iterations last/mean/max 9/9.78/10
Step  1300/2000   65.0% | t 65.000 | ETA 1m 37s | step 0.16s | KE 123.3051 | drift +16.20% | fluid 16.4403 | solid 106.8647
  Impulse FP iterations last/mean/max 10/9.76/10
Step  1400/2000   70.0% | t 70.000 | ETA 1m 23s | step 0.14s | KE 123.3701 | drift +16.26% | fluid 16.4587 | solid 106.9114
  Impulse FP iterations last/mean/max 10/9.74/10
Step  1500/2000   75.0% | t 75.000 | ETA 1m 9s | step 0.13s | KE 123.3533 | drift +16.25% | fluid 16.6326 | solid 106.7207
  Impulse FP iterations last/mean/max 9/9.73/10
Step  1600/2000   80.0% | t 80.000 | ETA 55s | step 0.14s | KE 123.4208 | drift +16.31% | fluid 15.7141 | solid 107.7067
  Impulse FP iterations last/mean/max 10/9.72/10
Step  1700/2000   85.0% | t 85.000 | ETA 41s | step 0.13s | KE 123.4722 | drift +16.36% | fluid 15.3238 | solid 108.1485
  Impulse FP iterations last/mean/max 10/9.70/10
Step  1800/2000   90.0% | t 90.000 | ETA 27s | step 0.13s | KE 123.4069 | drift +16.30% | fluid 16.5803 | solid 106.8266
  Impulse FP iterations last/mean/max 10/9.69/10
Step  1900/2000   95.0% | t 95.000 | ETA 13s | step 0.11s | KE 123.4553 | drift +16.34% | fluid 16.7967 | solid 106.6586
  Impulse FP iterations last/mean/max 9/9.68/10
Solver finished successfully - good job!
Results saved successfully.

================== Run summary ==================
  Bodies:            2
  Triangles / nodes: 256 / 516
  Timesteps:         2000  (dt = 0.05)
  Simulated time:    0 -> 100
  First-step setup:  0.343 s
  Mean time/step:    0.1361 s  (excl. first step)
  Total wall time:   4m 32s
  Impulse FP iters last/mean/max: 9 / 9.667 / 10
  Approx impulse solves/step:     9.668
  Impulse start cache hits/direct: 1999 / 1
  Impulse global drift P/H:       2.432851e-8 / 1.348336e-2
  Impulse per-body max drift P/H: 4.475490e-8 / 1.233767e-2
  CPU cores:         256 available, 8 Rayon worker thread(s)
  Started:           2026-06-24 01:34:41
  Finished:          2026-06-24 01:39:13
  Output file:       /work/e643/e643/shared/multi_ellip/studies/two_body_paper_sweeps/runs/spheroid_1_0p7_0p7/spheroid_1_0p7_0p7_rho1_E4_sep5_run03_impulse_noproj/multiple_body_complete.dat
================================================
