
================ Simulation setup ================
  Run label:         /work/e643/e643/shared/multi_ellip/studies/departing_sphericity_sweep/runs/spheroid_prolate/homogeneous/spheroid_prolate_homogeneous_eps0p0003_rho1_E0p5_sep8_run02_impulse_noproj/
  Started:           2026-06-24 02:23:11
  Input file:        /work/e643/e643/shared/multi_ellip/studies/departing_sphericity_sweep/runs/spheroid_prolate/homogeneous/spheroid_prolate_homogeneous_eps0p0003_rho1_E0p5_sep8_run02_impulse_noproj/input.txt
  Output file:       /work/e643/e643/shared/multi_ellip/studies/departing_sphericity_sweep/runs/spheroid_prolate/homogeneous/spheroid_prolate_homogeneous_eps0p0003_rho1_E0p5_sep8_run02_impulse_noproj/multiple_body_complete.dat
  Bodies:            2
  Fluid density:     1
  Mesh:              ndiv 2 -> 256 triangles / 516 nodes
  Simulated time:    0 -> 100  (dt = 0.05, ~2000 steps)
  Output cadence:    every 1 step(s)
  Output rows:       ~2001
  Progress cadence:  every 100 step(s)
  CPU cores:         256 available, 8 Rayon worker thread(s)
  Strong coupling:   disabled
  Impulse scheme:    enabled
  Hamiltonian step:  disabled
  Hamiltonian midpt: disabled
  Variational step:  disabled
  Energy projection: disabled
  Projection particular metric: Euclidean
  Fluid KE gradient: disabled  (eps = 0.001, scale = 1, linear = 1, angular = 1)
  Fluid KE discrete gradient: disabled
  Impulse pair metric correction: disabled  (mode = pair discrete-gradient, cutoff = all pairs, inner/outer = 0/0, eps = 0.001, linear scale = 1, angular scale = 0)
  Impulse metric correction: disabled  (internal load constraint = disabled)
  Impulse variational defect probe: disabled
  Impulse quadratic pressure: disabled  (scale = 1)
  Added-mass stab:   disabled
  Exact BEM geometry: disabled
  Exact singular BEM: disabled
  Legacy singular SLP diagnostic: disabled
  Phi-dot blend:     0 (off)

  Solver guidance:
    - Strong coupling: use for stiff close-coupled runs; slower but more implicit.
    - Impulse scheme: use when impulse/momentum conservation or KE drift is the focus. Recommended.
    - Added-mass stab: use for higher mesh counts (ndiv > 3) to preserve stability - deprecated.
================================================
Solver starting - good luck!

Initial state:
  Body  1
    density:          1.000000
    shape axes ratio: (1.000000, 0.999101, 0.999101)
    initial KE ratio: 0.500000
    position:         (-4.000000, 0.000000, 0.000000)
    velocity:         (4.517680, 3.343203, -0.043051)
    angular velocity: (-2.334525, 2.940719, -5.037915)
    orientation:      (w=-0.089607, i=0.271116, j=-0.940571, k=0.183828)
  Body  2
    density:          1.000000
    shape axes ratio: (1.000000, 0.999101, 0.999101)
    initial KE ratio: 0.500000
    position:         (4.000000, 0.000000, 0.000000)
    velocity:         (4.517533, 3.343095, -0.043050)
    angular velocity: (-2.881792, 4.174371, 3.707872)
    orientation:      (w=-0.687172, i=-0.362872, j=-0.626503, k=-0.060103)

Preparing first step: implicit scheme, no bootstrap passes required.
First step may take longer than later steps.

First step completed in 7.742 s.

Step   100/2000    5.0% | t 5.000 | ETA 2m 46s | step 0.09s | KE 274.0558 | drift +1.26% | fluid 72.1683 | solid 201.8875
  Impulse FP iterations last/mean/max 7/7.02/8
Step   200/2000   10.0% | t 10.000 | ETA 2m 43s | step 0.09s | KE 280.3598 | drift +3.59% | fluid 72.1766 | solid 208.1832
  Impulse FP iterations last/mean/max 7/7.06/8
Step   300/2000   15.0% | t 15.000 | ETA 2m 39s | step 0.10s | KE 289.5185 | drift +6.98% | fluid 72.1668 | solid 217.3517
  Impulse FP iterations last/mean/max 7/7.10/8
Step   400/2000   20.0% | t 20.000 | ETA 2m 33s | step 0.10s | KE 301.4953 | drift +11.40% | fluid 72.1563 | solid 229.3390
  Impulse FP iterations last/mean/max 7/7.14/8
Step   500/2000   25.0% | t 25.000 | ETA 2m 26s | step 0.10s | KE 316.2498 | drift +16.85% | fluid 72.1554 | solid 244.0945
  Impulse FP iterations last/mean/max 7/7.19/8
Step   600/2000   30.0% | t 30.000 | ETA 2m 18s | step 0.10s | KE 333.7446 | drift +23.32% | fluid 72.1697 | solid 261.5749
  Impulse FP iterations last/mean/max 7/7.24/8
Step   700/2000   35.0% | t 35.000 | ETA 2m 9s | step 0.10s | KE 353.9442 | drift +30.78% | fluid 72.1675 | solid 281.7767
  Impulse FP iterations last/mean/max 7/7.28/8
Step   800/2000   40.0% | t 40.000 | ETA 2m 0s | step 0.11s | KE 376.8126 | drift +39.23% | fluid 72.1843 | solid 304.6284
  Impulse FP iterations last/mean/max 8/7.32/8
Step   900/2000   45.0% | t 45.000 | ETA 1m 51s | step 0.10s | KE 402.3258 | drift +48.66% | fluid 72.1613 | solid 330.1644
  Impulse FP iterations last/mean/max 7/7.35/8
Step  1000/2000   50.0% | t 50.000 | ETA 1m 41s | step 0.11s | KE 430.4199 | drift +59.04% | fluid 72.1692 | solid 358.2508
  Impulse FP iterations last/mean/max 8/7.38/8
Step  1100/2000   55.0% | t 55.000 | ETA 1m 32s | step 0.10s | KE 461.0839 | drift +70.37% | fluid 72.1735 | solid 388.9105
  Impulse FP iterations last/mean/max 8/7.41/8
Step  1200/2000   60.0% | t 60.000 | ETA 1m 22s | step 0.11s | KE 494.2834 | drift +82.63% | fluid 72.1707 | solid 422.1128
  Impulse FP iterations last/mean/max 8/7.44/8
Step  1300/2000   65.0% | t 65.000 | ETA 1m 12s | step 0.10s | KE 529.9722 | drift +95.82% | fluid 72.1563 | solid 457.8159
  Impulse FP iterations last/mean/max 7/7.46/8
Step  1400/2000   70.0% | t 70.000 | ETA 1m 1s | step 0.10s | KE 568.1163 | drift +109.92% | fluid 72.1636 | solid 495.9526
  Impulse FP iterations last/mean/max 8/7.47/8
Step  1500/2000   75.0% | t 75.000 | ETA 51s | step 0.11s | KE 608.6721 | drift +124.90% | fluid 72.1813 | solid 536.4908
  Impulse FP iterations last/mean/max 8/7.49/8
Step  1600/2000   80.0% | t 80.000 | ETA 40s | step 0.09s | KE 651.6360 | drift +140.78% | fluid 72.1765 | solid 579.4595
  Impulse FP iterations last/mean/max 8/7.50/8
Step  1700/2000   85.0% | t 85.000 | ETA 30s | step 0.07s | KE 696.9773 | drift +157.53% | fluid 72.1647 | solid 624.8126
  Impulse FP iterations last/mean/max 7/7.51/8
Step  1800/2000   90.0% | t 90.000 | ETA 20s | step 0.08s | KE 744.6151 | drift +175.13% | fluid 72.1741 | solid 672.4410
  Impulse FP iterations last/mean/max 8/7.52/8
Step  1900/2000   95.0% | t 95.000 | ETA 9s | step 0.07s | KE 794.5645 | drift +193.59% | fluid 72.1762 | solid 722.3884
  Impulse FP iterations last/mean/max 8/7.53/8
Solver finished successfully - good job!
Results saved successfully.

================== Run summary ==================
  Bodies:            2
  Triangles / nodes: 256 / 516
  Timesteps:         2000  (dt = 0.05)
  Simulated time:    0 -> 100
  First-step setup:  7.742 s
  Mean time/step:    0.0970 s  (excl. first step)
  Total wall time:   3m 21s
  Impulse FP iters last/mean/max: 7 / 7.535 / 8
  Approx impulse solves/step:     7.535
  Impulse start cache hits/direct: 1999 / 1
  Impulse global drift P/H:       1.758080e-8 / 5.945952e-2
  Impulse per-body max drift P/H: 2.999076e-8 / 5.909728e-3
  CPU cores:         256 available, 8 Rayon worker thread(s)
  Started:           2026-06-24 02:23:11
  Finished:          2026-06-24 02:26:33
  Output file:       /work/e643/e643/shared/multi_ellip/studies/departing_sphericity_sweep/runs/spheroid_prolate/homogeneous/spheroid_prolate_homogeneous_eps0p0003_rho1_E0p5_sep8_run02_impulse_noproj/multiple_body_complete.dat
================================================
