
================ Simulation setup ================
  Run label:         /work/e643/e643/shared/multi_ellip/studies/departing_sphericity_sweep/runs/triaxial/homogeneous/triaxial_homogeneous_eps0p3_rho1_E0p5_sep8_run01_impulse_noproj/
  Started:           2026-06-24 02:30:21
  Input file:        /work/e643/e643/shared/multi_ellip/studies/departing_sphericity_sweep/runs/triaxial/homogeneous/triaxial_homogeneous_eps0p3_rho1_E0p5_sep8_run01_impulse_noproj/input.txt
  Output file:       /work/e643/e643/shared/multi_ellip/studies/departing_sphericity_sweep/runs/triaxial/homogeneous/triaxial_homogeneous_eps0p3_rho1_E0p5_sep8_run01_impulse_noproj/multiple_body_complete.dat
  Bodies:            2
  Fluid density:     1
  Mesh:              ndiv 2 -> 256 triangles / 516 nodes
  Simulated time:    0 -> 100  (dt = 0.05, ~2000 steps)
  Output cadence:    every 1 step(s)
  Output rows:       ~2001
  Progress cadence:  every 100 step(s)
  CPU cores:         256 available, 8 Rayon worker thread(s)
  Strong coupling:   disabled
  Impulse scheme:    enabled
  Hamiltonian step:  disabled
  Hamiltonian midpt: disabled
  Variational step:  disabled
  Energy projection: disabled
  Projection particular metric: Euclidean
  Fluid KE gradient: disabled  (eps = 0.001, scale = 1, linear = 1, angular = 1)
  Fluid KE discrete gradient: disabled
  Impulse pair metric correction: disabled  (mode = pair discrete-gradient, cutoff = all pairs, inner/outer = 0/0, eps = 0.001, linear scale = 1, angular scale = 0)
  Impulse metric correction: disabled  (internal load constraint = disabled)
  Impulse variational defect probe: disabled
  Impulse quadratic pressure: disabled  (scale = 1)
  Added-mass stab:   disabled
  Exact BEM geometry: disabled
  Exact singular BEM: disabled
  Legacy singular SLP diagnostic: disabled
  Phi-dot blend:     0 (off)

  Solver guidance:
    - Strong coupling: use for stiff close-coupled runs; slower but more implicit.
    - Impulse scheme: use when impulse/momentum conservation or KE drift is the focus. Recommended.
    - Added-mass stab: use for higher mesh counts (ndiv > 3) to preserve stability - deprecated.
================================================
Solver starting - good luck!

Initial state:
  Body  1
    density:          1.000000
    shape axes ratio: (1.000000, 0.769231, 0.591716)
    initial KE ratio: 0.500000
    position:         (-4.000000, 0.000000, 0.000000)
    velocity:         (2.639367, 3.054695, -3.485013)
    angular velocity: (-5.250186, -3.434672, 0.342046)
    orientation:      (w=0.604698, i=-0.323115, j=-0.522972, k=0.506397)
  Body  2
    density:          1.000000
    shape axes ratio: (1.000000, 0.769231, 0.591716)
    initial KE ratio: 0.500000
    position:         (4.000000, 0.000000, 0.000000)
    velocity:         (3.135754, 3.629192, -4.140441)
    angular velocity: (2.303303, -0.073670, -5.845322)
    orientation:      (w=-0.652835, i=0.152339, j=0.050091, k=-0.740331)

Preparing first step: implicit scheme, no bootstrap passes required.
First step may take longer than later steps.

First step completed in 0.345 s.

Step   100/2000    5.0% | t 5.000 | ETA 5m 6s | step 0.16s | KE 323.4236 | drift -0.24% | fluid 102.4438 | solid 220.9799
  Impulse FP iterations last/mean/max 11/11.23/12
Step   200/2000   10.0% | t 10.000 | ETA 4m 49s | step 0.16s | KE 323.4317 | drift -0.23% | fluid 97.0696 | solid 226.3621
  Impulse FP iterations last/mean/max 11/11.21/12
Step   300/2000   15.0% | t 15.000 | ETA 4m 33s | step 0.15s | KE 323.7177 | drift -0.15% | fluid 97.2067 | solid 226.5110
  Impulse FP iterations last/mean/max 11/11.20/12
Step   400/2000   20.0% | t 20.000 | ETA 4m 17s | step 0.16s | KE 323.6178 | drift -0.18% | fluid 100.8517 | solid 222.7661
  Impulse FP iterations last/mean/max 11/11.21/12
Step   500/2000   25.0% | t 25.000 | ETA 4m 1s | step 0.15s | KE 323.2261 | drift -0.30% | fluid 99.1964 | solid 224.0297
  Impulse FP iterations last/mean/max 11/11.20/12
Step   600/2000   30.0% | t 30.000 | ETA 3m 45s | step 0.15s | KE 323.6041 | drift -0.18% | fluid 95.1405 | solid 228.4636
  Impulse FP iterations last/mean/max 11/11.21/12
Step   700/2000   35.0% | t 35.000 | ETA 3m 29s | step 0.16s | KE 323.2894 | drift -0.28% | fluid 102.6664 | solid 220.6230
  Impulse FP iterations last/mean/max 11/11.21/12
Step   800/2000   40.0% | t 40.000 | ETA 3m 13s | step 0.16s | KE 323.6193 | drift -0.18% | fluid 96.9167 | solid 226.7026
  Impulse FP iterations last/mean/max 11/11.20/12
Step   900/2000   45.0% | t 45.000 | ETA 2m 57s | step 0.15s | KE 323.6184 | drift -0.18% | fluid 96.6637 | solid 226.9547
  Impulse FP iterations last/mean/max 11/11.20/12
Step  1000/2000   50.0% | t 50.000 | ETA 2m 41s | step 0.18s | KE 323.2684 | drift -0.28% | fluid 102.2587 | solid 221.0097
  Impulse FP iterations last/mean/max 12/11.21/12
Step  1100/2000   55.0% | t 55.000 | ETA 2m 24s | step 0.16s | KE 323.4014 | drift -0.24% | fluid 99.0880 | solid 224.3134
  Impulse FP iterations last/mean/max 11/11.20/12
Step  1200/2000   60.0% | t 60.000 | ETA 2m 8s | step 0.14s | KE 323.7800 | drift -0.13% | fluid 96.7314 | solid 227.0486
  Impulse FP iterations last/mean/max 10/11.20/12
Step  1300/2000   65.0% | t 65.000 | ETA 1m 52s | step 0.18s | KE 323.4594 | drift -0.23% | fluid 102.0840 | solid 221.3754
  Impulse FP iterations last/mean/max 12/11.19/12
Step  1400/2000   70.0% | t 70.000 | ETA 1m 36s | step 0.15s | KE 323.3810 | drift -0.25% | fluid 99.7318 | solid 223.6492
  Impulse FP iterations last/mean/max 11/11.19/12
Step  1500/2000   75.0% | t 75.000 | ETA 1m 19s | step 0.13s | KE 323.6686 | drift -0.16% | fluid 95.7038 | solid 227.9647
  Impulse FP iterations last/mean/max 11/11.19/12
Step  1600/2000   80.0% | t 80.000 | ETA 1m 3s | step 0.14s | KE 323.1292 | drift -0.33% | fluid 103.1344 | solid 219.9947
  Impulse FP iterations last/mean/max 12/11.19/12
Step  1700/2000   85.0% | t 85.000 | ETA 46s | step 0.11s | KE 323.7086 | drift -0.15% | fluid 97.9129 | solid 225.7957
  Impulse FP iterations last/mean/max 11/11.19/12
Step  1800/2000   90.0% | t 90.000 | ETA 30s | step 0.14s | KE 323.7011 | drift -0.15% | fluid 97.4647 | solid 226.2364
  Impulse FP iterations last/mean/max 11/11.19/12
Step  1900/2000   95.0% | t 95.000 | ETA 15s | step 0.13s | KE 323.3134 | drift -0.27% | fluid 101.5341 | solid 221.7793
  Impulse FP iterations last/mean/max 12/11.19/12
Solver finished successfully - good job!
Results saved successfully.

================== Run summary ==================
  Bodies:            2
  Triangles / nodes: 256 / 516
  Timesteps:         2000  (dt = 0.05)
  Simulated time:    0 -> 100
  First-step setup:  0.345 s
  Mean time/step:    0.1513 s  (excl. first step)
  Total wall time:   5m 2s
  Impulse FP iters last/mean/max: 12 / 11.189 / 12
  Approx impulse solves/step:     11.190
  Impulse start cache hits/direct: 1999 / 1
  Impulse global drift P/H:       8.834870e-9 / 1.294207e-2
  Impulse per-body max drift P/H: 1.143742e-8 / 1.540418e-3
  CPU cores:         256 available, 8 Rayon worker thread(s)
  Started:           2026-06-24 02:30:21
  Finished:          2026-06-24 02:35:24
  Output file:       /work/e643/e643/shared/multi_ellip/studies/departing_sphericity_sweep/runs/triaxial/homogeneous/triaxial_homogeneous_eps0p3_rho1_E0p5_sep8_run01_impulse_noproj/multiple_body_complete.dat
================================================
