
================ Simulation setup ================
  Run label:         /work/e643/e643/shared/multi_ellip/studies/two_body_paper_sweeps/runs/ellipsoid_1_0p8_0p6/ellipsoid_1_0p8_0p6_rho1_E4_sep8_run05_impulse_noproj/
  Started:           2026-06-24 01:38:57
  Input file:        /work/e643/e643/shared/multi_ellip/studies/two_body_paper_sweeps/runs/ellipsoid_1_0p8_0p6/ellipsoid_1_0p8_0p6_rho1_E4_sep8_run05_impulse_noproj/input.txt
  Output file:       /work/e643/e643/shared/multi_ellip/studies/two_body_paper_sweeps/runs/ellipsoid_1_0p8_0p6/ellipsoid_1_0p8_0p6_rho1_E4_sep8_run05_impulse_noproj/multiple_body_complete.dat
  Bodies:            2
  Fluid density:     1
  Mesh:              ndiv 2 -> 256 triangles / 516 nodes
  Simulated time:    0 -> 100  (dt = 0.05, ~2000 steps)
  Output cadence:    every 1 step(s)
  Output rows:       ~2001
  Progress cadence:  every 100 step(s)
  CPU cores:         256 available, 8 Rayon worker thread(s)
  Strong coupling:   disabled
  Impulse scheme:    enabled
  Hamiltonian step:  disabled
  Hamiltonian midpt: disabled
  Variational step:  disabled
  Energy projection: disabled
  Projection particular metric: Euclidean
  Fluid KE gradient: disabled  (eps = 0.001, scale = 1, linear = 1, angular = 1)
  Fluid KE discrete gradient: disabled
  Impulse pair metric correction: disabled  (mode = pair discrete-gradient, cutoff = all pairs, inner/outer = 0/0, eps = 0.001, linear scale = 1, angular scale = 0)
  Impulse metric correction: disabled  (internal load constraint = disabled)
  Impulse variational defect probe: disabled
  Impulse quadratic pressure: disabled  (scale = 1)
  Added-mass stab:   disabled
  Exact BEM geometry: disabled
  Exact singular BEM: disabled
  Legacy singular SLP diagnostic: disabled
  Phi-dot blend:     0 (off)

  Solver guidance:
    - Strong coupling: use for stiff close-coupled runs; slower but more implicit.
    - Impulse scheme: use when impulse/momentum conservation or KE drift is the focus. Recommended.
    - Added-mass stab: use for higher mesh counts (ndiv > 3) to preserve stability - deprecated.
================================================
Solver starting - good luck!

Initial state:
  Body  1
    density:          1.000000
    shape axes ratio: (1.000000, 0.800000, 0.600000)
    initial KE ratio: 4.000000
    position:         (-4.000000, 0.000000, 0.000000)
    velocity:         (1.716786, -0.670112, 0.882786)
    angular velocity: (2.633571, 5.703241, -0.125546)
    orientation:      (w=0.665819, i=0.001884, j=-0.063088, k=0.743439)
  Body  2
    density:          1.000000
    shape axes ratio: (1.000000, 0.800000, 0.600000)
    initial KE ratio: 4.000000
    position:         (4.000000, 0.000000, 0.000000)
    velocity:         (1.824430, -0.712128, 0.938137)
    angular velocity: (-0.249050, 4.958778, -3.850573)
    orientation:      (w=0.840985, i=0.385855, j=-0.350861, k=0.144073)

Preparing first step: implicit scheme, no bootstrap passes required.
First step may take longer than later steps.

First step completed in 0.359 s.

Step   100/2000    5.0% | t 5.000 | ETA 4m 49s | step 0.13s | KE 103.0451 | drift +1.52% | fluid 18.0210 | solid 85.0241
  Impulse FP iterations last/mean/max 11/11.00/12
Step   200/2000   10.0% | t 10.000 | ETA 4m 22s | step 0.14s | KE 104.9239 | drift +3.37% | fluid 12.8725 | solid 92.0514
  Impulse FP iterations last/mean/max 11/10.98/12
Step   300/2000   15.0% | t 15.000 | ETA 4m 6s | step 0.15s | KE 106.5738 | drift +4.99% | fluid 17.5388 | solid 89.0350
  Impulse FP iterations last/mean/max 11/10.99/12
Step   400/2000   20.0% | t 20.000 | ETA 3m 56s | step 0.16s | KE 107.7412 | drift +6.14% | fluid 13.9616 | solid 93.7796
  Impulse FP iterations last/mean/max 11/10.97/12
Step   500/2000   25.0% | t 25.000 | ETA 3m 44s | step 0.16s | KE 108.5258 | drift +6.91% | fluid 18.4083 | solid 90.1175
  Impulse FP iterations last/mean/max 11/10.96/12
Step   600/2000   30.0% | t 30.000 | ETA 3m 31s | step 0.15s | KE 108.9705 | drift +7.35% | fluid 14.4659 | solid 94.5046
  Impulse FP iterations last/mean/max 11/10.96/12
Step   700/2000   35.0% | t 35.000 | ETA 3m 17s | step 0.16s | KE 109.2580 | drift +7.64% | fluid 17.9737 | solid 91.2843
  Impulse FP iterations last/mean/max 11/10.95/12
Step   800/2000   40.0% | t 40.000 | ETA 3m 3s | step 0.15s | KE 109.2913 | drift +7.67% | fluid 14.3093 | solid 94.9820
  Impulse FP iterations last/mean/max 10/10.94/12
Step   900/2000   45.0% | t 45.000 | ETA 2m 48s | step 0.16s | KE 109.2069 | drift +7.59% | fluid 19.3865 | solid 89.8204
  Impulse FP iterations last/mean/max 11/10.93/12
Step  1000/2000   50.0% | t 50.000 | ETA 2m 33s | step 0.16s | KE 109.1676 | drift +7.55% | fluid 15.5679 | solid 93.5996
  Impulse FP iterations last/mean/max 11/10.92/12
Step  1100/2000   55.0% | t 55.000 | ETA 2m 18s | step 0.16s | KE 109.1599 | drift +7.54% | fluid 19.3014 | solid 89.8585
  Impulse FP iterations last/mean/max 11/10.92/12
Step  1200/2000   60.0% | t 60.000 | ETA 2m 3s | step 0.14s | KE 109.1512 | drift +7.53% | fluid 14.8046 | solid 94.3466
  Impulse FP iterations last/mean/max 10/10.91/12
Step  1300/2000   65.0% | t 65.000 | ETA 1m 48s | step 0.16s | KE 108.9909 | drift +7.37% | fluid 19.5931 | solid 89.3978
  Impulse FP iterations last/mean/max 11/10.91/12
Step  1400/2000   70.0% | t 70.000 | ETA 1m 32s | step 0.16s | KE 108.9406 | drift +7.32% | fluid 15.4019 | solid 93.5387
  Impulse FP iterations last/mean/max 11/10.91/12
Step  1500/2000   75.0% | t 75.000 | ETA 1m 17s | step 0.16s | KE 108.9090 | drift +7.29% | fluid 18.8585 | solid 90.0505
  Impulse FP iterations last/mean/max 11/10.91/12
Step  1600/2000   80.0% | t 80.000 | ETA 1m 1s | step 0.16s | KE 108.9896 | drift +7.37% | fluid 13.8851 | solid 95.1045
  Impulse FP iterations last/mean/max 11/10.90/12
Step  1700/2000   85.0% | t 85.000 | ETA 46s | step 0.16s | KE 108.9288 | drift +7.31% | fluid 17.9531 | solid 90.9757
  Impulse FP iterations last/mean/max 11/10.90/12
Step  1800/2000   90.0% | t 90.000 | ETA 31s | step 0.15s | KE 108.9063 | drift +7.29% | fluid 14.2961 | solid 94.6102
  Impulse FP iterations last/mean/max 11/10.90/12
Step  1900/2000   95.0% | t 95.000 | ETA 15s | step 0.16s | KE 108.8398 | drift +7.22% | fluid 18.1574 | solid 90.6824
  Impulse FP iterations last/mean/max 11/10.90/12
Solver finished successfully - good job!
Results saved successfully.

================== Run summary ==================
  Bodies:            2
  Triangles / nodes: 256 / 516
  Timesteps:         2000  (dt = 0.05)
  Simulated time:    0 -> 100
  First-step setup:  0.359 s
  Mean time/step:    0.1547 s  (excl. first step)
  Total wall time:   5m 9s
  Impulse FP iters last/mean/max: 11 / 10.894 / 12
  Approx impulse solves/step:     10.895
  Impulse start cache hits/direct: 1999 / 1
  Impulse global drift P/H:       1.385961e-8 / 2.269077e-2
  Impulse per-body max drift P/H: 1.834623e-8 / 1.115920e-2
  CPU cores:         256 available, 8 Rayon worker thread(s)
  Started:           2026-06-24 01:38:57
  Finished:          2026-06-24 01:44:07
  Output file:       /work/e643/e643/shared/multi_ellip/studies/two_body_paper_sweeps/runs/ellipsoid_1_0p8_0p6/ellipsoid_1_0p8_0p6_rho1_E4_sep8_run05_impulse_noproj/multiple_body_complete.dat
================================================
