
================ Simulation setup ================
  Run label:         /work/e643/e643/shared/multi_ellip/studies/two_body_paper_sweeps/runs/spheroid_1_0p7_0p7/spheroid_1_0p7_0p7_rho4_E30_sep11_run03_impulse_noproj/
  Started:           2026-06-24 01:29:34
  Input file:        /work/e643/e643/shared/multi_ellip/studies/two_body_paper_sweeps/runs/spheroid_1_0p7_0p7/spheroid_1_0p7_0p7_rho4_E30_sep11_run03_impulse_noproj/input.txt
  Output file:       /work/e643/e643/shared/multi_ellip/studies/two_body_paper_sweeps/runs/spheroid_1_0p7_0p7/spheroid_1_0p7_0p7_rho4_E30_sep11_run03_impulse_noproj/multiple_body_complete.dat
  Bodies:            2
  Fluid density:     1
  Mesh:              ndiv 2 -> 256 triangles / 516 nodes
  Simulated time:    0 -> 100  (dt = 0.05, ~2000 steps)
  Output cadence:    every 1 step(s)
  Output rows:       ~2001
  Progress cadence:  every 100 step(s)
  CPU cores:         256 available, 8 Rayon worker thread(s)
  Strong coupling:   disabled
  Impulse scheme:    enabled
  Hamiltonian step:  disabled
  Hamiltonian midpt: disabled
  Variational step:  disabled
  Energy projection: disabled
  Projection particular metric: Euclidean
  Fluid KE gradient: disabled  (eps = 0.001, scale = 1, linear = 1, angular = 1)
  Fluid KE discrete gradient: disabled
  Impulse pair metric correction: disabled  (mode = pair discrete-gradient, cutoff = all pairs, inner/outer = 0/0, eps = 0.001, linear scale = 1, angular scale = 0)
  Impulse metric correction: disabled  (internal load constraint = disabled)
  Impulse variational defect probe: disabled
  Impulse quadratic pressure: disabled  (scale = 1)
  Added-mass stab:   disabled
  Exact BEM geometry: disabled
  Exact singular BEM: disabled
  Legacy singular SLP diagnostic: disabled
  Phi-dot blend:     0 (off)

  Solver guidance:
    - Strong coupling: use for stiff close-coupled runs; slower but more implicit.
    - Impulse scheme: use when impulse/momentum conservation or KE drift is the focus. Recommended.
    - Added-mass stab: use for higher mesh counts (ndiv > 3) to preserve stability - deprecated.
================================================
Solver starting - good luck!

Initial state:
  Body  1
    density:          4.000000
    shape axes ratio: (1.000000, 0.700000, 0.700000)
    initial KE ratio: 30.000000
    position:         (-5.500000, 0.000000, 0.000000)
    velocity:         (-0.389336, 0.463547, -0.394765)
    angular velocity: (-4.456569, 0.433502, -4.407889)
    orientation:      (w=0.595128, i=-0.531080, j=0.180459, k=0.575510)
  Body  2
    density:          4.000000
    shape axes ratio: (1.000000, 0.700000, 0.700000)
    initial KE ratio: 30.000000
    position:         (5.500000, 0.000000, 0.000000)
    velocity:         (-0.427189, 0.508614, -0.433145)
    angular velocity: (0.626952, 3.405975, 5.242584)
    orientation:      (w=-0.194889, i=0.161744, j=-0.416671, k=0.873065)

Preparing first step: implicit scheme, no bootstrap passes required.
First step may take longer than later steps.

First step completed in 0.253 s.

Step   100/2000    5.0% | t 5.000 | ETA 3m 9s | step 0.10s | KE 321.2203 | drift +0.01% | fluid 7.0634 | solid 314.1569
  Impulse FP iterations last/mean/max 7/7.20/8
Step   200/2000   10.0% | t 10.000 | ETA 3m 1s | step 0.10s | KE 321.2633 | drift +0.03% | fluid 6.9987 | solid 314.2646
  Impulse FP iterations last/mean/max 7/7.18/8
Step   300/2000   15.0% | t 15.000 | ETA 2m 54s | step 0.10s | KE 321.3002 | drift +0.04% | fluid 6.9781 | solid 314.3221
  Impulse FP iterations last/mean/max 7/7.24/8
Step   400/2000   20.0% | t 20.000 | ETA 2m 43s | step 0.10s | KE 321.3293 | drift +0.05% | fluid 6.9753 | solid 314.3540
  Impulse FP iterations last/mean/max 7/7.21/8
Step   500/2000   25.0% | t 25.000 | ETA 2m 34s | step 0.11s | KE 321.3515 | drift +0.05% | fluid 7.2272 | solid 314.1243
  Impulse FP iterations last/mean/max 8/7.22/8
Step   600/2000   30.0% | t 30.000 | ETA 2m 24s | step 0.10s | KE 321.3826 | drift +0.06% | fluid 7.2680 | solid 314.1146
  Impulse FP iterations last/mean/max 7/7.25/8
Step   700/2000   35.0% | t 35.000 | ETA 2m 14s | step 0.10s | KE 321.4115 | drift +0.07% | fluid 7.1637 | solid 314.2478
  Impulse FP iterations last/mean/max 7/7.24/8
Step   800/2000   40.0% | t 40.000 | ETA 2m 4s | step 0.10s | KE 321.4405 | drift +0.08% | fluid 6.8389 | solid 314.6016
  Impulse FP iterations last/mean/max 7/7.24/8
Step   900/2000   45.0% | t 45.000 | ETA 1m 53s | step 0.10s | KE 321.4528 | drift +0.09% | fluid 7.0204 | solid 314.4324
  Impulse FP iterations last/mean/max 7/7.24/8
Step  1000/2000   50.0% | t 50.000 | ETA 1m 43s | step 0.10s | KE 321.4638 | drift +0.09% | fluid 7.1339 | solid 314.3299
  Impulse FP iterations last/mean/max 7/7.23/8
Step  1100/2000   55.0% | t 55.000 | ETA 1m 33s | step 0.12s | KE 321.4615 | drift +0.09% | fluid 7.2727 | solid 314.1887
  Impulse FP iterations last/mean/max 8/7.25/8
Step  1200/2000   60.0% | t 60.000 | ETA 1m 22s | step 0.10s | KE 321.4694 | drift +0.09% | fluid 7.1171 | solid 314.3524
  Impulse FP iterations last/mean/max 7/7.25/8
Step  1300/2000   65.0% | t 65.000 | ETA 1m 12s | step 0.10s | KE 321.4727 | drift +0.09% | fluid 7.1401 | solid 314.3326
  Impulse FP iterations last/mean/max 7/7.24/8
Step  1400/2000   70.0% | t 70.000 | ETA 1m 2s | step 0.10s | KE 321.4783 | drift +0.09% | fluid 6.9718 | solid 314.5065
  Impulse FP iterations last/mean/max 7/7.25/8
Step  1500/2000   75.0% | t 75.000 | ETA 51s | step 0.10s | KE 321.4715 | drift +0.09% | fluid 6.8994 | solid 314.5721
  Impulse FP iterations last/mean/max 7/7.24/8
Step  1600/2000   80.0% | t 80.000 | ETA 41s | step 0.11s | KE 321.4581 | drift +0.09% | fluid 7.0334 | solid 314.4247
  Impulse FP iterations last/mean/max 8/7.25/8
Step  1700/2000   85.0% | t 85.000 | ETA 31s | step 0.11s | KE 321.4441 | drift +0.08% | fluid 7.2803 | solid 314.1638
  Impulse FP iterations last/mean/max 8/7.25/8
Step  1800/2000   90.0% | t 90.000 | ETA 20s | step 0.10s | KE 321.4324 | drift +0.08% | fluid 7.2964 | solid 314.1359
  Impulse FP iterations last/mean/max 7/7.24/8
Step  1900/2000   95.0% | t 95.000 | ETA 10s | step 0.10s | KE 321.4294 | drift +0.08% | fluid 6.9920 | solid 314.4375
  Impulse FP iterations last/mean/max 7/7.24/8
Solver finished successfully - good job!
Results saved successfully.

================== Run summary ==================
  Bodies:            2
  Triangles / nodes: 256 / 516
  Timesteps:         2000  (dt = 0.05)
  Simulated time:    0 -> 100
  First-step setup:  0.253 s
  Mean time/step:    0.1036 s  (excl. first step)
  Total wall time:   3m 27s
  Impulse FP iters last/mean/max: 7 / 7.242 / 8
  Approx impulse solves/step:     7.243
  Impulse start cache hits/direct: 1999 / 1
  Impulse global drift P/H:       2.401835e-8 / 3.760414e-3
  Impulse per-body max drift P/H: 3.933032e-8 / 1.571498e-3
  CPU cores:         256 available, 8 Rayon worker thread(s)
  Started:           2026-06-24 01:29:34
  Finished:          2026-06-24 01:33:02
  Output file:       /work/e643/e643/shared/multi_ellip/studies/two_body_paper_sweeps/runs/spheroid_1_0p7_0p7/spheroid_1_0p7_0p7_rho4_E30_sep11_run03_impulse_noproj/multiple_body_complete.dat
================================================
