
================ Simulation setup ================
  Run label:         /work/e643/e643/shared/multi_ellip/studies/two_body_paper_sweeps/runs/spheroid_1_0p7_0p7/spheroid_1_0p7_0p7_rho0p03_E0p55_sep8_run01_impulse_noproj/
  Started:           2026-06-22 20:00:41
  Input file:        /work/e643/e643/shared/multi_ellip/studies/two_body_paper_sweeps/runs/spheroid_1_0p7_0p7/spheroid_1_0p7_0p7_rho0p03_E0p55_sep8_run01_impulse_noproj/input.txt
  Output file:       /work/e643/e643/shared/multi_ellip/studies/two_body_paper_sweeps/runs/spheroid_1_0p7_0p7/spheroid_1_0p7_0p7_rho0p03_E0p55_sep8_run01_impulse_noproj/multiple_body_complete.dat
  Bodies:            2
  Fluid density:     1
  Mesh:              ndiv 2 -> 256 triangles / 516 nodes
  Simulated time:    0 -> 100  (dt = 0.05, ~2000 steps)
  Output cadence:    every 1 step(s)
  Output rows:       ~2001
  Progress cadence:  every 100 step(s)
  CPU cores:         256 available, 8 Rayon worker thread(s)
  Strong coupling:   disabled
  Impulse scheme:    enabled
  Hamiltonian step:  disabled
  Hamiltonian midpt: disabled
  Variational step:  disabled
  Energy projection: disabled
  Projection particular metric: Euclidean
  Fluid KE gradient: disabled  (eps = 0.001, scale = 1, linear = 1, angular = 1)
  Fluid KE discrete gradient: disabled
  Impulse pair metric correction: disabled  (mode = pair discrete-gradient, cutoff = all pairs, inner/outer = 0/0, eps = 0.001, linear scale = 1, angular scale = 0)
  Impulse metric correction: disabled  (internal load constraint = disabled)
  Impulse variational defect probe: disabled
  Impulse quadratic pressure: disabled  (scale = 1)
  Added-mass stab:   disabled
  Exact BEM geometry: disabled
  Exact singular BEM: disabled
  Legacy singular SLP diagnostic: disabled
  Phi-dot blend:     0 (off)

  Solver guidance:
    - Strong coupling: use for stiff close-coupled runs; slower but more implicit.
    - Impulse scheme: use when impulse/momentum conservation or KE drift is the focus. Recommended.
    - Added-mass stab: use for higher mesh counts (ndiv > 3) to preserve stability - deprecated.
================================================
Solver starting - good luck!

Initial state:
  Body  1
    density:          0.030000
    shape axes ratio: (1.000000, 0.700000, 0.700000)
    initial KE ratio: 0.550000
    position:         (-4.000000, 0.000000, 0.000000)
    velocity:         (3.711768, -2.904684, 3.014531)
    angular velocity: (3.230163, -0.974011, -5.300544)
    orientation:      (w=0.447214, i=0.894427, j=0.000000, k=0.000000)
  Body  2
    density:          0.030000
    shape axes ratio: (1.000000, 0.700000, 0.700000)
    initial KE ratio: 0.550000
    position:         (4.000000, 0.000000, 0.000000)
    velocity:         (3.512014, -2.748365, 2.852301)
    angular velocity: (4.628316, -1.301269, 4.045220)
    orientation:      (w=0.707107, i=0.000000, j=0.707107, k=0.000000)

Preparing first step: implicit scheme, no bootstrap passes required.
First step may take longer than later steps.

First step completed in 0.515 s.

Step   100/2000    5.0% | t 5.000 | ETA 8m 24s | step 0.26s | KE 78.0439 | drift -0.47% | fluid 71.7339 | solid 6.3100
  Impulse FP iterations last/mean/max 19/19.27/22
Step   200/2000   10.0% | t 10.000 | ETA 7m 55s | step 0.28s | KE 78.0790 | drift -0.43% | fluid 71.2923 | solid 6.7867
  Impulse FP iterations last/mean/max 21/19.23/22
Step   300/2000   15.0% | t 15.000 | ETA 7m 20s | step 0.23s | KE 78.3332 | drift -0.10% | fluid 71.6568 | solid 6.6764
  Impulse FP iterations last/mean/max 19/19.19/22
Step   400/2000   20.0% | t 20.000 | ETA 6m 52s | step 0.25s | KE 78.5040 | drift +0.12% | fluid 72.1533 | solid 6.3507
  Impulse FP iterations last/mean/max 19/19.19/22
Step   500/2000   25.0% | t 25.000 | ETA 6m 25s | step 0.24s | KE 78.4043 | drift -0.01% | fluid 72.3235 | solid 6.0807
  Impulse FP iterations last/mean/max 18/19.18/22
Step   600/2000   30.0% | t 30.000 | ETA 5m 52s | step 0.21s | KE 78.2443 | drift -0.22% | fluid 72.4887 | solid 5.7556
  Impulse FP iterations last/mean/max 18/19.17/22
Step   700/2000   35.0% | t 35.000 | ETA 5m 21s | step 0.21s | KE 78.2030 | drift -0.27% | fluid 72.7726 | solid 5.4304
  Impulse FP iterations last/mean/max 18/19.18/22
Step   800/2000   40.0% | t 40.000 | ETA 4m 54s | step 0.24s | KE 78.1491 | drift -0.34% | fluid 72.5769 | solid 5.5722
  Impulse FP iterations last/mean/max 20/19.19/22
Step   900/2000   45.0% | t 45.000 | ETA 4m 29s | step 0.23s | KE 78.0407 | drift -0.48% | fluid 71.8018 | solid 6.2390
  Impulse FP iterations last/mean/max 18/19.19/22
Step  1000/2000   50.0% | t 50.000 | ETA 4m 5s | step 0.27s | KE 78.0172 | drift -0.51% | fluid 71.2464 | solid 6.7707
  Impulse FP iterations last/mean/max 20/19.18/22
Step  1100/2000   55.0% | t 55.000 | ETA 3m 40s | step 0.21s | KE 78.2829 | drift -0.17% | fluid 71.5960 | solid 6.6869
  Impulse FP iterations last/mean/max 18/19.17/22
Step  1200/2000   60.0% | t 60.000 | ETA 3m 16s | step 0.23s | KE 78.5277 | drift +0.15% | fluid 72.2330 | solid 6.2948
  Impulse FP iterations last/mean/max 19/19.17/22
Step  1300/2000   65.0% | t 65.000 | ETA 2m 52s | step 0.25s | KE 78.4753 | drift +0.08% | fluid 72.4607 | solid 6.0146
  Impulse FP iterations last/mean/max 19/19.17/22
Step  1400/2000   70.0% | t 70.000 | ETA 2m 27s | step 0.24s | KE 78.2725 | drift -0.18% | fluid 72.4647 | solid 5.8077
  Impulse FP iterations last/mean/max 17/19.17/22
Step  1500/2000   75.0% | t 75.000 | ETA 2m 3s | step 0.26s | KE 78.1946 | drift -0.28% | fluid 72.6435 | solid 5.5512
  Impulse FP iterations last/mean/max 19/19.16/22
Step  1600/2000   80.0% | t 80.000 | ETA 1m 38s | step 0.23s | KE 78.1329 | drift -0.36% | fluid 72.5451 | solid 5.5879
  Impulse FP iterations last/mean/max 20/19.16/22
Step  1700/2000   85.0% | t 85.000 | ETA 1m 13s | step 0.20s | KE 78.0192 | drift -0.50% | fluid 71.8767 | solid 6.1424
  Impulse FP iterations last/mean/max 20/19.16/22
Step  1800/2000   90.0% | t 90.000 | ETA 48s | step 0.19s | KE 77.9684 | drift -0.57% | fluid 71.2553 | solid 6.7131
  Impulse FP iterations last/mean/max 20/19.15/22
Step  1900/2000   95.0% | t 95.000 | ETA 23s | step 0.18s | KE 78.2227 | drift -0.24% | fluid 71.5241 | solid 6.6986
  Impulse FP iterations last/mean/max 19/19.15/22
Solver finished successfully - good job!
Results saved successfully.

================== Run summary ==================
  Bodies:            2
  Triangles / nodes: 256 / 516
  Timesteps:         2000  (dt = 0.05)
  Simulated time:    0 -> 100
  First-step setup:  0.515 s
  Mean time/step:    0.2358 s  (excl. first step)
  Total wall time:   7m 51s
  Impulse FP iters last/mean/max: 19 / 19.157 / 22
  Approx impulse solves/step:     19.157
  Impulse start cache hits/direct: 1999 / 1
  Impulse global drift P/H:       9.146475e-8 / 8.038020e-4
  Impulse per-body max drift P/H: 9.650070e-8 / 2.336513e-4
  CPU cores:         256 available, 8 Rayon worker thread(s)
  Started:           2026-06-22 20:00:41
  Finished:          2026-06-22 20:08:33
  Output file:       /work/e643/e643/shared/multi_ellip/studies/two_body_paper_sweeps/runs/spheroid_1_0p7_0p7/spheroid_1_0p7_0p7_rho0p03_E0p55_sep8_run01_impulse_noproj/multiple_body_complete.dat
================================================
