
================ Simulation setup ================
  Run label:         /work/e643/e643/shared/multi_ellip/studies/two_body_paper_sweeps/runs/ellipsoid_1_0p8_0p6/ellipsoid_1_0p8_0p6_rho0p3_E1p5_sep11_run04_impulse_noproj/
  Started:           2026-06-24 01:51:05
  Input file:        /work/e643/e643/shared/multi_ellip/studies/two_body_paper_sweeps/runs/ellipsoid_1_0p8_0p6/ellipsoid_1_0p8_0p6_rho0p3_E1p5_sep11_run04_impulse_noproj/input.txt
  Output file:       /work/e643/e643/shared/multi_ellip/studies/two_body_paper_sweeps/runs/ellipsoid_1_0p8_0p6/ellipsoid_1_0p8_0p6_rho0p3_E1p5_sep11_run04_impulse_noproj/multiple_body_complete.dat
  Bodies:            2
  Fluid density:     1
  Mesh:              ndiv 2 -> 256 triangles / 516 nodes
  Simulated time:    0 -> 100  (dt = 0.05, ~2000 steps)
  Output cadence:    every 1 step(s)
  Output rows:       ~2001
  Progress cadence:  every 100 step(s)
  CPU cores:         256 available, 8 Rayon worker thread(s)
  Strong coupling:   disabled
  Impulse scheme:    enabled
  Hamiltonian step:  disabled
  Hamiltonian midpt: disabled
  Variational step:  disabled
  Energy projection: disabled
  Projection particular metric: Euclidean
  Fluid KE gradient: disabled  (eps = 0.001, scale = 1, linear = 1, angular = 1)
  Fluid KE discrete gradient: disabled
  Impulse pair metric correction: disabled  (mode = pair discrete-gradient, cutoff = all pairs, inner/outer = 0/0, eps = 0.001, linear scale = 1, angular scale = 0)
  Impulse metric correction: disabled  (internal load constraint = disabled)
  Impulse variational defect probe: disabled
  Impulse quadratic pressure: disabled  (scale = 1)
  Added-mass stab:   disabled
  Exact BEM geometry: disabled
  Exact singular BEM: disabled
  Legacy singular SLP diagnostic: disabled
  Phi-dot blend:     0 (off)

  Solver guidance:
    - Strong coupling: use for stiff close-coupled runs; slower but more implicit.
    - Impulse scheme: use when impulse/momentum conservation or KE drift is the focus. Recommended.
    - Added-mass stab: use for higher mesh counts (ndiv > 3) to preserve stability - deprecated.
================================================
Solver starting - good luck!

Initial state:
  Body  1
    density:          0.300000
    shape axes ratio: (1.000000, 0.800000, 0.600000)
    initial KE ratio: 1.500000
    position:         (-5.500000, 0.000000, 0.000000)
    velocity:         (0.573752, 3.010748, -0.846603)
    angular velocity: (-4.539067, 4.256020, 0.872686)
    orientation:      (w=-0.234306, i=-0.765401, j=0.593452, k=-0.084126)
  Body  2
    density:          0.300000
    shape axes ratio: (1.000000, 0.800000, 0.600000)
    initial KE ratio: 1.500000
    position:         (5.500000, 0.000000, 0.000000)
    velocity:         (0.618980, 3.248076, -0.913338)
    angular velocity: (0.701031, -6.072665, -1.452483)
    orientation:      (w=-0.581184, i=0.268185, j=-0.602591, k=-0.476641)

Preparing first step: implicit scheme, no bootstrap passes required.
First step may take longer than later steps.

First step completed in 0.402 s.

Step   100/2000    5.0% | t 5.000 | ETA 6m 25s | step 0.19s | KE 69.4702 | drift -0.17% | fluid 32.4153 | solid 37.0549
  Impulse FP iterations last/mean/max 14/14.22/15
Step   200/2000   10.0% | t 10.000 | ETA 6m 2s | step 0.21s | KE 69.4824 | drift -0.16% | fluid 32.5750 | solid 36.9074
  Impulse FP iterations last/mean/max 15/14.28/16
Step   300/2000   15.0% | t 15.000 | ETA 5m 42s | step 0.21s | KE 69.3789 | drift -0.30% | fluid 33.7041 | solid 35.6748
  Impulse FP iterations last/mean/max 15/14.29/16
Step   400/2000   20.0% | t 20.000 | ETA 5m 22s | step 0.20s | KE 69.3730 | drift -0.31% | fluid 33.3028 | solid 36.0702
  Impulse FP iterations last/mean/max 14/14.29/16
Step   500/2000   25.0% | t 25.000 | ETA 5m 2s | step 0.19s | KE 69.4917 | drift -0.14% | fluid 34.5813 | solid 34.9104
  Impulse FP iterations last/mean/max 13/14.30/16
Step   600/2000   30.0% | t 30.000 | ETA 4m 42s | step 0.20s | KE 69.4264 | drift -0.24% | fluid 33.1318 | solid 36.2947
  Impulse FP iterations last/mean/max 14/14.30/16
Step   700/2000   35.0% | t 35.000 | ETA 4m 22s | step 0.20s | KE 69.4602 | drift -0.19% | fluid 33.7005 | solid 35.7598
  Impulse FP iterations last/mean/max 15/14.30/16
Step   800/2000   40.0% | t 40.000 | ETA 4m 1s | step 0.20s | KE 69.6363 | drift +0.07% | fluid 33.2714 | solid 36.3649
  Impulse FP iterations last/mean/max 14/14.31/16
Step   900/2000   45.0% | t 45.000 | ETA 3m 41s | step 0.20s | KE 69.6506 | drift +0.09% | fluid 33.6499 | solid 36.0007
  Impulse FP iterations last/mean/max 14/14.31/16
Step  1000/2000   50.0% | t 50.000 | ETA 3m 21s | step 0.19s | KE 69.5875 | drift -0.00% | fluid 33.9273 | solid 35.6601
  Impulse FP iterations last/mean/max 14/14.30/16
Step  1100/2000   55.0% | t 55.000 | ETA 3m 0s | step 0.19s | KE 69.5693 | drift -0.03% | fluid 32.4994 | solid 37.0699
  Impulse FP iterations last/mean/max 14/14.30/16
Step  1200/2000   60.0% | t 60.000 | ETA 2m 39s | step 0.17s | KE 69.5997 | drift +0.01% | fluid 34.4177 | solid 35.1821
  Impulse FP iterations last/mean/max 14/14.29/16
Step  1300/2000   65.0% | t 65.000 | ETA 2m 18s | step 0.18s | KE 69.4704 | drift -0.17% | fluid 33.2983 | solid 36.1720
  Impulse FP iterations last/mean/max 15/14.29/16
Step  1400/2000   70.0% | t 70.000 | ETA 1m 57s | step 0.19s | KE 69.4441 | drift -0.21% | fluid 34.3489 | solid 35.0952
  Impulse FP iterations last/mean/max 15/14.29/16
Step  1500/2000   75.0% | t 75.000 | ETA 1m 37s | step 0.19s | KE 69.4694 | drift -0.17% | fluid 33.4559 | solid 36.0135
  Impulse FP iterations last/mean/max 14/14.30/16
Step  1600/2000   80.0% | t 80.000 | ETA 1m 18s | step 0.21s | KE 69.4186 | drift -0.25% | fluid 32.5830 | solid 36.8355
  Impulse FP iterations last/mean/max 15/14.30/16
Step  1700/2000   85.0% | t 85.000 | ETA 59s | step 0.21s | KE 69.4741 | drift -0.17% | fluid 33.4043 | solid 36.0699
  Impulse FP iterations last/mean/max 15/14.29/16
Step  1800/2000   90.0% | t 90.000 | ETA 39s | step 0.21s | KE 69.5003 | drift -0.13% | fluid 32.3669 | solid 37.1334
  Impulse FP iterations last/mean/max 14/14.29/16
Step  1900/2000   95.0% | t 95.000 | ETA 19s | step 0.18s | KE 69.5652 | drift -0.04% | fluid 33.8570 | solid 35.7082
  Impulse FP iterations last/mean/max 14/14.30/16
Solver finished successfully - good job!
Results saved successfully.

================== Run summary ==================
  Bodies:            2
  Triangles / nodes: 256 / 516
  Timesteps:         2000  (dt = 0.05)
  Simulated time:    0 -> 100
  First-step setup:  0.402 s
  Mean time/step:    0.1975 s  (excl. first step)
  Total wall time:   6m 35s
  Impulse FP iters last/mean/max: 14 / 14.299 / 16
  Approx impulse solves/step:     14.299
  Impulse start cache hits/direct: 1999 / 1
  Impulse global drift P/H:       3.048066e-8 / 3.108704e-3
  Impulse per-body max drift P/H: 4.347696e-8 / 1.885853e-3
  CPU cores:         256 available, 8 Rayon worker thread(s)
  Started:           2026-06-24 01:51:05
  Finished:          2026-06-24 01:57:41
  Output file:       /work/e643/e643/shared/multi_ellip/studies/two_body_paper_sweeps/runs/ellipsoid_1_0p8_0p6/ellipsoid_1_0p8_0p6_rho0p3_E1p5_sep11_run04_impulse_noproj/multiple_body_complete.dat
================================================
