
================ Simulation setup ================
  Run label:         /work/e643/e643/shared/multi_ellip/studies/two_body_paper_sweeps/runs/spheroid_1_0p7_0p7/spheroid_1_0p7_0p7_rho0p1_E4_sep3_run01_impulse_noproj/
  Started:           2026-06-22 19:52:05
  Input file:        /work/e643/e643/shared/multi_ellip/studies/two_body_paper_sweeps/runs/spheroid_1_0p7_0p7/spheroid_1_0p7_0p7_rho0p1_E4_sep3_run01_impulse_noproj/input.txt
  Output file:       /work/e643/e643/shared/multi_ellip/studies/two_body_paper_sweeps/runs/spheroid_1_0p7_0p7/spheroid_1_0p7_0p7_rho0p1_E4_sep3_run01_impulse_noproj/multiple_body_complete.dat
  Bodies:            2
  Fluid density:     1
  Mesh:              ndiv 2 -> 256 triangles / 516 nodes
  Simulated time:    0 -> 100  (dt = 0.05, ~2000 steps)
  Output cadence:    every 1 step(s)
  Output rows:       ~2001
  Progress cadence:  every 100 step(s)
  CPU cores:         256 available, 8 Rayon worker thread(s)
  Strong coupling:   disabled
  Impulse scheme:    enabled
  Hamiltonian step:  disabled
  Hamiltonian midpt: disabled
  Variational step:  disabled
  Energy projection: disabled
  Projection particular metric: Euclidean
  Fluid KE gradient: disabled  (eps = 0.001, scale = 1, linear = 1, angular = 1)
  Fluid KE discrete gradient: disabled
  Impulse pair metric correction: disabled  (mode = pair discrete-gradient, cutoff = all pairs, inner/outer = 0/0, eps = 0.001, linear scale = 1, angular scale = 0)
  Impulse metric correction: disabled  (internal load constraint = disabled)
  Impulse variational defect probe: disabled
  Impulse quadratic pressure: disabled  (scale = 1)
  Added-mass stab:   disabled
  Exact BEM geometry: disabled
  Exact singular BEM: disabled
  Legacy singular SLP diagnostic: disabled
  Phi-dot blend:     0 (off)

  Solver guidance:
    - Strong coupling: use for stiff close-coupled runs; slower but more implicit.
    - Impulse scheme: use when impulse/momentum conservation or KE drift is the focus. Recommended.
    - Added-mass stab: use for higher mesh counts (ndiv > 3) to preserve stability - deprecated.
================================================
Solver starting - good luck!

Initial state:
  Body  1
    density:          0.100000
    shape axes ratio: (1.000000, 0.700000, 0.700000)
    initial KE ratio: 4.000000
    position:         (-1.500000, 0.000000, 0.000000)
    velocity:         (-0.800573, -0.176090, -1.933968)
    angular velocity: (2.792437, -3.770729, 4.178793)
    orientation:      (w=0.447214, i=0.894427, j=0.000000, k=0.000000)
  Body  2
    density:          0.100000
    shape axes ratio: (1.000000, 0.700000, 0.700000)
    initial KE ratio: 4.000000
    position:         (1.500000, 0.000000, 0.000000)
    velocity:         (-0.690061, -0.151782, -1.667002)
    angular velocity: (5.953036, 0.495744, 1.947824)
    orientation:      (w=0.707107, i=0.000000, j=0.707107, k=0.000000)

Preparing first step: implicit scheme, no bootstrap passes required.
First step may take longer than later steps.

First step completed in 0.446 s.

Step   100/2000    5.0% | t 5.000 | ETA 7m 25s | step 0.22s | KE 25.6380 | drift +9.83% | fluid 15.2446 | solid 10.3934
  Impulse FP iterations last/mean/max 16/16.38/19
Step   200/2000   10.0% | t 10.000 | ETA 6m 47s | step 0.19s | KE 25.5518 | drift +9.47% | fluid 15.1234 | solid 10.4284
  Impulse FP iterations last/mean/max 15/16.02/19
Step   300/2000   15.0% | t 15.000 | ETA 6m 15s | step 0.20s | KE 25.3956 | drift +8.80% | fluid 14.9930 | solid 10.4026
  Impulse FP iterations last/mean/max 16/15.76/19
Step   400/2000   20.0% | t 20.000 | ETA 5m 47s | step 0.20s | KE 25.4221 | drift +8.91% | fluid 15.2972 | solid 10.1248
  Impulse FP iterations last/mean/max 15/15.62/19
Step   500/2000   25.0% | t 25.000 | ETA 5m 23s | step 0.20s | KE 25.4727 | drift +9.13% | fluid 15.1447 | solid 10.3280
  Impulse FP iterations last/mean/max 16/15.55/19
Step   600/2000   30.0% | t 30.000 | ETA 4m 57s | step 0.19s | KE 25.4410 | drift +8.99% | fluid 15.5448 | solid 9.8962
  Impulse FP iterations last/mean/max 16/15.48/19
Step   700/2000   35.0% | t 35.000 | ETA 4m 31s | step 0.17s | KE 25.5118 | drift +9.29% | fluid 15.3153 | solid 10.1965
  Impulse FP iterations last/mean/max 15/15.45/19
Step   800/2000   40.0% | t 40.000 | ETA 4m 6s | step 0.21s | KE 25.4574 | drift +9.06% | fluid 15.6602 | solid 9.7972
  Impulse FP iterations last/mean/max 15/15.43/19
Step   900/2000   45.0% | t 45.000 | ETA 3m 44s | step 0.19s | KE 25.5143 | drift +9.30% | fluid 15.3363 | solid 10.1780
  Impulse FP iterations last/mean/max 15/15.41/19
Step  1000/2000   50.0% | t 50.000 | ETA 3m 24s | step 0.19s | KE 25.4494 | drift +9.03% | fluid 15.5885 | solid 9.8609
  Impulse FP iterations last/mean/max 15/15.39/19
Step  1100/2000   55.0% | t 55.000 | ETA 3m 4s | step 0.22s | KE 25.4762 | drift +9.14% | fluid 15.1857 | solid 10.2904
  Impulse FP iterations last/mean/max 16/15.38/19
Step  1200/2000   60.0% | t 60.000 | ETA 2m 43s | step 0.20s | KE 25.4238 | drift +8.92% | fluid 15.3579 | solid 10.0659
  Impulse FP iterations last/mean/max 14/15.36/19
Step  1300/2000   65.0% | t 65.000 | ETA 2m 23s | step 0.19s | KE 25.4191 | drift +8.90% | fluid 15.0141 | solid 10.4050
  Impulse FP iterations last/mean/max 15/15.36/19
Step  1400/2000   70.0% | t 70.000 | ETA 2m 3s | step 0.21s | KE 25.3977 | drift +8.81% | fluid 15.0926 | solid 10.3051
  Impulse FP iterations last/mean/max 16/15.34/19
Step  1500/2000   75.0% | t 75.000 | ETA 1m 42s | step 0.18s | KE 25.3943 | drift +8.79% | fluid 15.0333 | solid 10.3610
  Impulse FP iterations last/mean/max 15/15.33/19
Step  1600/2000   80.0% | t 80.000 | ETA 1m 22s | step 0.22s | KE 25.4054 | drift +8.84% | fluid 14.9916 | solid 10.4138
  Impulse FP iterations last/mean/max 16/15.32/19
Step  1700/2000   85.0% | t 85.000 | ETA 1m 1s | step 0.21s | KE 25.4142 | drift +8.88% | fluid 15.2651 | solid 10.1491
  Impulse FP iterations last/mean/max 15/15.32/19
Step  1800/2000   90.0% | t 90.000 | ETA 41s | step 0.23s | KE 25.4563 | drift +9.06% | fluid 15.1186 | solid 10.3377
  Impulse FP iterations last/mean/max 16/15.31/19
Step  1900/2000   95.0% | t 95.000 | ETA 20s | step 0.19s | KE 25.4420 | drift +8.99% | fluid 15.5244 | solid 9.9176
  Impulse FP iterations last/mean/max 16/15.30/19
Solver finished successfully - good job!
Results saved successfully.

================== Run summary ==================
  Bodies:            2
  Triangles / nodes: 256 / 516
  Timesteps:         2000  (dt = 0.05)
  Simulated time:    0 -> 100
  First-step setup:  0.446 s
  Mean time/step:    0.2045 s  (excl. first step)
  Total wall time:   6m 49s
  Impulse FP iters last/mean/max: 15 / 15.300 / 19
  Approx impulse solves/step:     15.300
  Impulse start cache hits/direct: 1999 / 1
  Impulse global drift P/H:       4.198716e-8 / 6.820428e-3
  Impulse per-body max drift P/H: 6.423229e-8 / 4.331314e-3
  CPU cores:         256 available, 8 Rayon worker thread(s)
  Started:           2026-06-22 19:52:05
  Finished:          2026-06-22 19:58:54
  Output file:       /work/e643/e643/shared/multi_ellip/studies/two_body_paper_sweeps/runs/spheroid_1_0p7_0p7/spheroid_1_0p7_0p7_rho0p1_E4_sep3_run01_impulse_noproj/multiple_body_complete.dat
================================================
