
================ Simulation setup ================
  Run label:         /work/e643/e643/shared/multi_ellip/studies/two_body_paper_sweeps/runs/spheroid_1_0p7_0p7/spheroid_1_0p7_0p7_rho1_E4_sep3_run05_impulse_noproj/
  Started:           2026-06-24 01:34:40
  Input file:        /work/e643/e643/shared/multi_ellip/studies/two_body_paper_sweeps/runs/spheroid_1_0p7_0p7/spheroid_1_0p7_0p7_rho1_E4_sep3_run05_impulse_noproj/input.txt
  Output file:       /work/e643/e643/shared/multi_ellip/studies/two_body_paper_sweeps/runs/spheroid_1_0p7_0p7/spheroid_1_0p7_0p7_rho1_E4_sep3_run05_impulse_noproj/multiple_body_complete.dat
  Bodies:            2
  Fluid density:     1
  Mesh:              ndiv 2 -> 256 triangles / 516 nodes
  Simulated time:    0 -> 100  (dt = 0.05, ~2000 steps)
  Output cadence:    every 1 step(s)
  Output rows:       ~2001
  Progress cadence:  every 100 step(s)
  CPU cores:         256 available, 8 Rayon worker thread(s)
  Strong coupling:   disabled
  Impulse scheme:    enabled
  Hamiltonian step:  disabled
  Hamiltonian midpt: disabled
  Variational step:  disabled
  Energy projection: disabled
  Projection particular metric: Euclidean
  Fluid KE gradient: disabled  (eps = 0.001, scale = 1, linear = 1, angular = 1)
  Fluid KE discrete gradient: disabled
  Impulse pair metric correction: disabled  (mode = pair discrete-gradient, cutoff = all pairs, inner/outer = 0/0, eps = 0.001, linear scale = 1, angular scale = 0)
  Impulse metric correction: disabled  (internal load constraint = disabled)
  Impulse variational defect probe: disabled
  Impulse quadratic pressure: disabled  (scale = 1)
  Added-mass stab:   disabled
  Exact BEM geometry: disabled
  Exact singular BEM: disabled
  Legacy singular SLP diagnostic: disabled
  Phi-dot blend:     0 (off)

  Solver guidance:
    - Strong coupling: use for stiff close-coupled runs; slower but more implicit.
    - Impulse scheme: use when impulse/momentum conservation or KE drift is the focus. Recommended.
    - Added-mass stab: use for higher mesh counts (ndiv > 3) to preserve stability - deprecated.
================================================
Solver starting - good luck!

Initial state:
  Body  1
    density:          1.000000
    shape axes ratio: (1.000000, 0.700000, 0.700000)
    initial KE ratio: 4.000000
    position:         (-1.500000, 0.000000, 0.000000)
    velocity:         (-0.092412, 0.516496, 2.040575)
    angular velocity: (-2.671556, -4.476645, 3.507258)
    orientation:      (w=-0.281863, i=-0.723946, j=-0.296621, k=-0.555403)
  Body  2
    density:          1.000000
    shape axes ratio: (1.000000, 0.700000, 0.700000)
    initial KE ratio: 4.000000
    position:         (1.500000, 0.000000, 0.000000)
    velocity:         (-0.095033, 0.531143, 2.098440)
    angular velocity: (-0.955839, 2.471089, -5.697237)
    orientation:      (w=-0.543172, i=-0.551631, j=0.559153, k=0.296672)

Preparing first step: implicit scheme, no bootstrap passes required.
First step may take longer than later steps.

First step completed in 0.360 s.

Step   100/2000    5.0% | t 5.000 | ETA 4m 45s | step 0.15s | KE 108.5116 | drift +0.51% | fluid 15.9429 | solid 92.5686
  Impulse FP iterations last/mean/max 10/10.33/11
Step   200/2000   10.0% | t 10.000 | ETA 4m 28s | step 0.14s | KE 117.4869 | drift +8.82% | fluid 16.7301 | solid 100.7568
  Impulse FP iterations last/mean/max 10/10.25/11
Step   300/2000   15.0% | t 15.000 | ETA 4m 10s | step 0.15s | KE 126.4807 | drift +17.15% | fluid 15.9575 | solid 110.5232
  Impulse FP iterations last/mean/max 10/10.13/11
Step   400/2000   20.0% | t 20.000 | ETA 3m 53s | step 0.12s | KE 130.0970 | drift +20.50% | fluid 17.0646 | solid 113.0325
  Impulse FP iterations last/mean/max 9/10.04/11
Step   500/2000   25.0% | t 25.000 | ETA 3m 37s | step 0.14s | KE 131.3878 | drift +21.70% | fluid 16.7329 | solid 114.6549
  Impulse FP iterations last/mean/max 10/10.01/11
Step   600/2000   30.0% | t 30.000 | ETA 3m 22s | step 0.15s | KE 131.7231 | drift +22.01% | fluid 17.3125 | solid 114.4105
  Impulse FP iterations last/mean/max 10/9.98/11
Step   700/2000   35.0% | t 35.000 | ETA 3m 6s | step 0.12s | KE 131.6629 | drift +21.95% | fluid 17.5710 | solid 114.0919
  Impulse FP iterations last/mean/max 9/9.93/11
Step   800/2000   40.0% | t 40.000 | ETA 2m 51s | step 0.13s | KE 131.5261 | drift +21.82% | fluid 17.6671 | solid 113.8590
  Impulse FP iterations last/mean/max 9/9.91/11
Step   900/2000   45.0% | t 45.000 | ETA 2m 36s | step 0.14s | KE 131.4232 | drift +21.73% | fluid 17.3028 | solid 114.1204
  Impulse FP iterations last/mean/max 10/9.87/11
Step  1000/2000   50.0% | t 50.000 | ETA 2m 21s | step 0.14s | KE 131.2553 | drift +21.57% | fluid 16.9306 | solid 114.3246
  Impulse FP iterations last/mean/max 9/9.84/11
Step  1100/2000   55.0% | t 55.000 | ETA 2m 7s | step 0.14s | KE 131.0577 | drift +21.39% | fluid 17.8036 | solid 113.2541
  Impulse FP iterations last/mean/max 9/9.82/11
Step  1200/2000   60.0% | t 60.000 | ETA 1m 52s | step 0.12s | KE 130.9924 | drift +21.33% | fluid 17.4664 | solid 113.5260
  Impulse FP iterations last/mean/max 9/9.78/11
Step  1300/2000   65.0% | t 65.000 | ETA 1m 38s | step 0.15s | KE 130.9937 | drift +21.33% | fluid 16.3185 | solid 114.6751
  Impulse FP iterations last/mean/max 10/9.77/11
Step  1400/2000   70.0% | t 70.000 | ETA 1m 24s | step 0.13s | KE 130.9420 | drift +21.28% | fluid 16.7956 | solid 114.1464
  Impulse FP iterations last/mean/max 10/9.74/11
Step  1500/2000   75.0% | t 75.000 | ETA 1m 9s | step 0.13s | KE 130.9405 | drift +21.28% | fluid 16.5770 | solid 114.3635
  Impulse FP iterations last/mean/max 10/9.72/11
Step  1600/2000   80.0% | t 80.000 | ETA 55s | step 0.15s | KE 131.0214 | drift +21.36% | fluid 15.4935 | solid 115.5279
  Impulse FP iterations last/mean/max 10/9.71/11
Step  1700/2000   85.0% | t 85.000 | ETA 41s | step 0.14s | KE 131.0190 | drift +21.36% | fluid 16.0928 | solid 114.9262
  Impulse FP iterations last/mean/max 10/9.69/11
Step  1800/2000   90.0% | t 90.000 | ETA 27s | step 0.13s | KE 130.9431 | drift +21.28% | fluid 16.8441 | solid 114.0990
  Impulse FP iterations last/mean/max 9/9.68/11
Step  1900/2000   95.0% | t 95.000 | ETA 13s | step 0.13s | KE 130.9591 | drift +21.30% | fluid 16.8190 | solid 114.1401
  Impulse FP iterations last/mean/max 9/9.66/11
Solver finished successfully - good job!
Results saved successfully.

================== Run summary ==================
  Bodies:            2
  Triangles / nodes: 256 / 516
  Timesteps:         2000  (dt = 0.05)
  Simulated time:    0 -> 100
  First-step setup:  0.360 s
  Mean time/step:    0.1379 s  (excl. first step)
  Total wall time:   4m 36s
  Impulse FP iters last/mean/max: 9 / 9.656 / 11
  Approx impulse solves/step:     9.657
  Impulse start cache hits/direct: 1999 / 1
  Impulse global drift P/H:       1.554418e-8 / 2.841574e-2
  Impulse per-body max drift P/H: 1.971203e-8 / 2.137893e-2
  CPU cores:         256 available, 8 Rayon worker thread(s)
  Started:           2026-06-24 01:34:40
  Finished:          2026-06-24 01:39:17
  Output file:       /work/e643/e643/shared/multi_ellip/studies/two_body_paper_sweeps/runs/spheroid_1_0p7_0p7/spheroid_1_0p7_0p7_rho1_E4_sep3_run05_impulse_noproj/multiple_body_complete.dat
================================================
