
================ Simulation setup ================
  Run label:         /work/e643/e643/shared/multi_ellip/studies/two_body_paper_sweeps/runs/spheroid_1_0p7_0p7/spheroid_1_0p7_0p7_rho4_E11_sep5_run02_impulse_noproj/
  Started:           2026-06-22 19:30:32
  Input file:        /work/e643/e643/shared/multi_ellip/studies/two_body_paper_sweeps/runs/spheroid_1_0p7_0p7/spheroid_1_0p7_0p7_rho4_E11_sep5_run02_impulse_noproj/input.txt
  Output file:       /work/e643/e643/shared/multi_ellip/studies/two_body_paper_sweeps/runs/spheroid_1_0p7_0p7/spheroid_1_0p7_0p7_rho4_E11_sep5_run02_impulse_noproj/multiple_body_complete.dat
  Bodies:            2
  Fluid density:     1
  Mesh:              ndiv 2 -> 256 triangles / 516 nodes
  Simulated time:    0 -> 100  (dt = 0.05, ~2000 steps)
  Output cadence:    every 1 step(s)
  Output rows:       ~2001
  Progress cadence:  every 100 step(s)
  CPU cores:         256 available, 8 Rayon worker thread(s)
  Strong coupling:   disabled
  Impulse scheme:    enabled
  Hamiltonian step:  disabled
  Hamiltonian midpt: disabled
  Variational step:  disabled
  Energy projection: disabled
  Projection particular metric: Euclidean
  Fluid KE gradient: disabled  (eps = 0.001, scale = 1, linear = 1, angular = 1)
  Fluid KE discrete gradient: disabled
  Impulse pair metric correction: disabled  (mode = pair discrete-gradient, cutoff = all pairs, inner/outer = 0/0, eps = 0.001, linear scale = 1, angular scale = 0)
  Impulse metric correction: disabled  (internal load constraint = disabled)
  Impulse variational defect probe: disabled
  Impulse quadratic pressure: disabled  (scale = 1)
  Added-mass stab:   disabled
  Exact BEM geometry: disabled
  Exact singular BEM: disabled
  Legacy singular SLP diagnostic: disabled
  Phi-dot blend:     0 (off)

  Solver guidance:
    - Strong coupling: use for stiff close-coupled runs; slower but more implicit.
    - Impulse scheme: use when impulse/momentum conservation or KE drift is the focus. Recommended.
    - Added-mass stab: use for higher mesh counts (ndiv > 3) to preserve stability - deprecated.
================================================
Solver starting - good luck!

Initial state:
  Body  1
    density:          4.000000
    shape axes ratio: (1.000000, 0.700000, 0.700000)
    initial KE ratio: 11.000000
    position:         (-2.500000, 0.000000, 0.000000)
    velocity:         (0.973893, -0.375235, 0.763477)
    angular velocity: (1.804669, -4.521430, -3.972185)
    orientation:      (w=0.577350, i=0.577350, j=0.577350, k=0.000000)
  Body  2
    density:          4.000000
    shape axes ratio: (1.000000, 0.700000, 0.700000)
    initial KE ratio: 11.000000
    position:         (2.500000, 0.000000, 0.000000)
    velocity:         (0.960218, -0.369967, 0.752757)
    angular velocity: (-2.526321, 3.801897, -4.317603)
    orientation:      (w=0.577350, i=-0.577350, j=0.000000, k=0.577350)

Preparing first step: implicit scheme, no bootstrap passes required.
First step may take longer than later steps.

First step completed in 0.279 s.

Step   100/2000    5.0% | t 5.000 | ETA 3m 40s | step 0.12s | KE 323.4351 | drift -0.49% | fluid 8.7947 | solid 314.6405
  Impulse FP iterations last/mean/max 8/7.99/8
Step   200/2000   10.0% | t 10.000 | ETA 3m 27s | step 0.11s | KE 321.6953 | drift -1.03% | fluid 8.2159 | solid 313.4795
  Impulse FP iterations last/mean/max 8/8.00/8
Step   300/2000   15.0% | t 15.000 | ETA 3m 16s | step 0.11s | KE 319.8651 | drift -1.59% | fluid 7.7262 | solid 312.1389
  Impulse FP iterations last/mean/max 8/7.99/8
Step   400/2000   20.0% | t 20.000 | ETA 3m 5s | step 0.12s | KE 318.0124 | drift -2.16% | fluid 8.3239 | solid 309.6884
  Impulse FP iterations last/mean/max 8/8.00/8
Step   500/2000   25.0% | t 25.000 | ETA 2m 53s | step 0.12s | KE 316.0985 | drift -2.75% | fluid 8.7694 | solid 307.3291
  Impulse FP iterations last/mean/max 8/7.99/8
Step   600/2000   30.0% | t 30.000 | ETA 2m 42s | step 0.12s | KE 314.0363 | drift -3.39% | fluid 8.1225 | solid 305.9138
  Impulse FP iterations last/mean/max 8/8.00/8
Step   700/2000   35.0% | t 35.000 | ETA 2m 30s | step 0.10s | KE 312.0925 | drift -3.98% | fluid 8.3335 | solid 303.7590
  Impulse FP iterations last/mean/max 8/8.00/8
Step   800/2000   40.0% | t 40.000 | ETA 2m 18s | step 0.12s | KE 309.9063 | drift -4.66% | fluid 8.1314 | solid 301.7749
  Impulse FP iterations last/mean/max 8/8.00/8
Step   900/2000   45.0% | t 45.000 | ETA 2m 7s | step 0.11s | KE 307.9838 | drift -5.25% | fluid 7.8996 | solid 300.0841
  Impulse FP iterations last/mean/max 8/8.00/8
Step  1000/2000   50.0% | t 50.000 | ETA 1m 55s | step 0.12s | KE 305.9890 | drift -5.86% | fluid 7.8686 | solid 298.1205
  Impulse FP iterations last/mean/max 8/8.00/8
Step  1100/2000   55.0% | t 55.000 | ETA 1m 44s | step 0.11s | KE 304.2329 | drift -6.40% | fluid 7.4269 | solid 296.8060
  Impulse FP iterations last/mean/max 8/8.00/8
Step  1200/2000   60.0% | t 60.000 | ETA 1m 32s | step 0.12s | KE 302.4201 | drift -6.96% | fluid 7.7967 | solid 294.6234
  Impulse FP iterations last/mean/max 8/8.00/8
Step  1300/2000   65.0% | t 65.000 | ETA 1m 20s | step 0.12s | KE 300.7187 | drift -7.48% | fluid 8.5822 | solid 292.1365
  Impulse FP iterations last/mean/max 8/8.00/8
Step  1400/2000   70.0% | t 70.000 | ETA 1m 9s | step 0.11s | KE 299.2513 | drift -7.93% | fluid 7.1247 | solid 292.1265
  Impulse FP iterations last/mean/max 8/8.00/8
Step  1500/2000   75.0% | t 75.000 | ETA 57s | step 0.11s | KE 298.0896 | drift -8.29% | fluid 8.2523 | solid 289.8373
  Impulse FP iterations last/mean/max 8/8.00/9
Step  1600/2000   80.0% | t 80.000 | ETA 46s | step 0.11s | KE 297.0015 | drift -8.63% | fluid 7.7880 | solid 289.2135
  Impulse FP iterations last/mean/max 8/8.00/9
Step  1700/2000   85.0% | t 85.000 | ETA 34s | step 0.11s | KE 296.1762 | drift -8.88% | fluid 6.8627 | solid 289.3135
  Impulse FP iterations last/mean/max 8/8.01/9
Step  1800/2000   90.0% | t 90.000 | ETA 23s | step 0.09s | KE 295.3158 | drift -9.14% | fluid 7.6209 | solid 287.6949
  Impulse FP iterations last/mean/max 8/8.01/9
Step  1900/2000   95.0% | t 95.000 | ETA 11s | step 0.07s | KE 294.6297 | drift -9.36% | fluid 7.0288 | solid 287.6009
  Impulse FP iterations last/mean/max 8/8.01/9
Solver finished successfully - good job!
Results saved successfully.

================== Run summary ==================
  Bodies:            2
  Triangles / nodes: 256 / 516
  Timesteps:         2000  (dt = 0.05)
  Simulated time:    0 -> 100
  First-step setup:  0.279 s
  Mean time/step:    0.1115 s  (excl. first step)
  Total wall time:   3m 43s
  Impulse FP iters last/mean/max: 8 / 8.012 / 9
  Approx impulse solves/step:     8.013
  Impulse start cache hits/direct: 1999 / 1
  Impulse global drift P/H:       2.067335e-8 / 3.199975e-3
  Impulse per-body max drift P/H: 4.711536e-8 / 3.540457e-3
  CPU cores:         256 available, 8 Rayon worker thread(s)
  Started:           2026-06-22 19:30:32
  Finished:          2026-06-22 19:34:15
  Output file:       /work/e643/e643/shared/multi_ellip/studies/two_body_paper_sweeps/runs/spheroid_1_0p7_0p7/spheroid_1_0p7_0p7_rho4_E11_sep5_run02_impulse_noproj/multiple_body_complete.dat
================================================
