
================ Simulation setup ================
  Run label:         /work/e643/e643/shared/multi_ellip/studies/two_body_paper_sweeps/runs/ellipsoid_1_0p8_0p6/ellipsoid_1_0p8_0p6_rho0p3_E0p2_sep3_run03_impulse_noproj/
  Started:           2026-06-24 01:44:21
  Input file:        /work/e643/e643/shared/multi_ellip/studies/two_body_paper_sweeps/runs/ellipsoid_1_0p8_0p6/ellipsoid_1_0p8_0p6_rho0p3_E0p2_sep3_run03_impulse_noproj/input.txt
  Output file:       /work/e643/e643/shared/multi_ellip/studies/two_body_paper_sweeps/runs/ellipsoid_1_0p8_0p6/ellipsoid_1_0p8_0p6_rho0p3_E0p2_sep3_run03_impulse_noproj/multiple_body_complete.dat
  Bodies:            2
  Fluid density:     1
  Mesh:              ndiv 2 -> 256 triangles / 516 nodes
  Simulated time:    0 -> 100  (dt = 0.05, ~2000 steps)
  Output cadence:    every 1 step(s)
  Output rows:       ~2001
  Progress cadence:  every 100 step(s)
  CPU cores:         256 available, 8 Rayon worker thread(s)
  Strong coupling:   disabled
  Impulse scheme:    enabled
  Hamiltonian step:  disabled
  Hamiltonian midpt: disabled
  Variational step:  disabled
  Energy projection: disabled
  Projection particular metric: Euclidean
  Fluid KE gradient: disabled  (eps = 0.001, scale = 1, linear = 1, angular = 1)
  Fluid KE discrete gradient: disabled
  Impulse pair metric correction: disabled  (mode = pair discrete-gradient, cutoff = all pairs, inner/outer = 0/0, eps = 0.001, linear scale = 1, angular scale = 0)
  Impulse metric correction: disabled  (internal load constraint = disabled)
  Impulse variational defect probe: disabled
  Impulse quadratic pressure: disabled  (scale = 1)
  Added-mass stab:   disabled
  Exact BEM geometry: disabled
  Exact singular BEM: disabled
  Legacy singular SLP diagnostic: disabled
  Phi-dot blend:     0 (off)

  Solver guidance:
    - Strong coupling: use for stiff close-coupled runs; slower but more implicit.
    - Impulse scheme: use when impulse/momentum conservation or KE drift is the focus. Recommended.
    - Added-mass stab: use for higher mesh counts (ndiv > 3) to preserve stability - deprecated.
================================================
Solver starting - good luck!

Initial state:
  Body  1
    density:          0.300000
    shape axes ratio: (1.000000, 0.800000, 0.600000)
    initial KE ratio: 0.200000
    position:         (-1.500000, 0.000000, 0.000000)
    velocity:         (-3.401800, 8.038057, 3.273957)
    angular velocity: (2.015986, -5.628000, 1.933863)
    orientation:      (w=-0.300098, i=0.403116, j=0.464815, k=-0.728962)
  Body  2
    density:          0.300000
    shape axes ratio: (1.000000, 0.800000, 0.600000)
    initial KE ratio: 0.200000
    position:         (1.500000, 0.000000, 0.000000)
    velocity:         (-3.372280, 7.968305, 3.245546)
    angular velocity: (-2.148163, 5.805529, -1.076865)
    orientation:      (w=0.386214, i=-0.063470, j=-0.826146, k=-0.405331)

Preparing first step: implicit scheme, no bootstrap passes required.
First step may take longer than later steps.

First step completed in 0.426 s.

Step   100/2000    5.0% | t 5.000 | ETA 7m 13s | step 0.19s | KE 462.5491 | drift +37.88% | fluid 220.9559 | solid 241.5932
  Impulse FP iterations last/mean/max 15/15.75/18
Step   200/2000   10.0% | t 10.000 | ETA 6m 45s | step 0.22s | KE 462.5629 | drift +37.89% | fluid 216.8570 | solid 245.7059
  Impulse FP iterations last/mean/max 15/15.73/18
Step   300/2000   15.0% | t 15.000 | ETA 6m 19s | step 0.21s | KE 458.0766 | drift +36.55% | fluid 212.1578 | solid 245.9188
  Impulse FP iterations last/mean/max 16/15.68/18
Step   400/2000   20.0% | t 20.000 | ETA 5m 56s | step 0.21s | KE 456.7462 | drift +36.15% | fluid 213.1082 | solid 243.6381
  Impulse FP iterations last/mean/max 15/15.66/18
Step   500/2000   25.0% | t 25.000 | ETA 5m 34s | step 0.23s | KE 460.7498 | drift +37.35% | fluid 216.3054 | solid 244.4445
  Impulse FP iterations last/mean/max 16/15.68/18
Step   600/2000   30.0% | t 30.000 | ETA 5m 11s | step 0.23s | KE 464.9997 | drift +38.61% | fluid 222.9336 | solid 242.0661
  Impulse FP iterations last/mean/max 16/15.68/18
Step   700/2000   35.0% | t 35.000 | ETA 4m 49s | step 0.23s | KE 460.9818 | drift +37.42% | fluid 229.5455 | solid 231.4363
  Impulse FP iterations last/mean/max 16/15.68/18
Step   800/2000   40.0% | t 40.000 | ETA 4m 26s | step 0.22s | KE 453.9133 | drift +35.31% | fluid 231.9130 | solid 222.0003
  Impulse FP iterations last/mean/max 16/15.66/18
Step   900/2000   45.0% | t 45.000 | ETA 4m 4s | step 0.23s | KE 450.3118 | drift +34.24% | fluid 228.0604 | solid 222.2514
  Impulse FP iterations last/mean/max 16/15.67/18
Step  1000/2000   50.0% | t 50.000 | ETA 3m 41s | step 0.23s | KE 454.1286 | drift +35.37% | fluid 223.2257 | solid 230.9030
  Impulse FP iterations last/mean/max 16/15.66/18
Step  1100/2000   55.0% | t 55.000 | ETA 3m 19s | step 0.20s | KE 460.7922 | drift +37.36% | fluid 219.9011 | solid 240.8911
  Impulse FP iterations last/mean/max 15/15.65/19
Step  1200/2000   60.0% | t 60.000 | ETA 2m 57s | step 0.24s | KE 465.3008 | drift +38.70% | fluid 217.4759 | solid 247.8249
  Impulse FP iterations last/mean/max 16/15.65/19
Step  1300/2000   65.0% | t 65.000 | ETA 2m 35s | step 0.20s | KE 462.5328 | drift +37.88% | fluid 214.9674 | solid 247.5654
  Impulse FP iterations last/mean/max 14/15.66/19
Step  1400/2000   70.0% | t 70.000 | ETA 2m 11s | step 0.15s | KE 458.2201 | drift +36.59% | fluid 214.4415 | solid 243.7786
  Impulse FP iterations last/mean/max 15/15.65/19
Step  1500/2000   75.0% | t 75.000 | ETA 1m 47s | step 0.15s | KE 458.1014 | drift +36.56% | fluid 217.1066 | solid 240.9948
  Impulse FP iterations last/mean/max 15/15.64/19
Step  1600/2000   80.0% | t 80.000 | ETA 1m 24s | step 0.14s | KE 461.6828 | drift +37.63% | fluid 224.0373 | solid 237.6455
  Impulse FP iterations last/mean/max 16/15.65/19
Step  1700/2000   85.0% | t 85.000 | ETA 1m 2s | step 0.14s | KE 467.8380 | drift +39.46% | fluid 234.0785 | solid 233.7595
  Impulse FP iterations last/mean/max 16/15.64/19
Step  1800/2000   90.0% | t 90.000 | ETA 40s | step 0.15s | KE 469.3768 | drift +39.92% | fluid 237.1767 | solid 232.2001
  Impulse FP iterations last/mean/max 16/15.63/19
Step  1900/2000   95.0% | t 95.000 | ETA 20s | step 0.15s | KE 462.7840 | drift +37.95% | fluid 233.0578 | solid 229.7262
  Impulse FP iterations last/mean/max 16/15.64/19
Solver finished successfully - good job!
Results saved successfully.

================== Run summary ==================
  Bodies:            2
  Triangles / nodes: 256 / 516
  Timesteps:         2000  (dt = 0.05)
  Simulated time:    0 -> 100
  First-step setup:  0.426 s
  Mean time/step:    0.1979 s  (excl. first step)
  Total wall time:   6m 36s
  Impulse FP iters last/mean/max: 17 / 15.641 / 19
  Approx impulse solves/step:     15.642
  Impulse start cache hits/direct: 1999 / 1
  Impulse global drift P/H:       7.175847e-8 / 8.740272e-2
  Impulse per-body max drift P/H: 1.166719e-7 / 4.516653e-2
  CPU cores:         256 available, 8 Rayon worker thread(s)
  Started:           2026-06-24 01:44:21
  Finished:          2026-06-24 01:50:57
  Output file:       /work/e643/e643/shared/multi_ellip/studies/two_body_paper_sweeps/runs/ellipsoid_1_0p8_0p6/ellipsoid_1_0p8_0p6_rho0p3_E0p2_sep3_run03_impulse_noproj/multiple_body_complete.dat
================================================
