
================ Simulation setup ================
  Run label:         /work/e643/e643/shared/multi_ellip/studies/two_body_paper_sweeps/runs/spheroid_1_0p7_0p7/spheroid_1_0p7_0p7_rho10_E1p5_sep11_run05_impulse_noproj/
  Started:           2026-06-24 01:18:35
  Input file:        /work/e643/e643/shared/multi_ellip/studies/two_body_paper_sweeps/runs/spheroid_1_0p7_0p7/spheroid_1_0p7_0p7_rho10_E1p5_sep11_run05_impulse_noproj/input.txt
  Output file:       /work/e643/e643/shared/multi_ellip/studies/two_body_paper_sweeps/runs/spheroid_1_0p7_0p7/spheroid_1_0p7_0p7_rho10_E1p5_sep11_run05_impulse_noproj/multiple_body_complete.dat
  Bodies:            2
  Fluid density:     1
  Mesh:              ndiv 2 -> 256 triangles / 516 nodes
  Simulated time:    0 -> 100  (dt = 0.05, ~2000 steps)
  Output cadence:    every 1 step(s)
  Output rows:       ~2001
  Progress cadence:  every 100 step(s)
  CPU cores:         256 available, 8 Rayon worker thread(s)
  Strong coupling:   disabled
  Impulse scheme:    enabled
  Hamiltonian step:  disabled
  Hamiltonian midpt: disabled
  Variational step:  disabled
  Energy projection: disabled
  Projection particular metric: Euclidean
  Fluid KE gradient: disabled  (eps = 0.001, scale = 1, linear = 1, angular = 1)
  Fluid KE discrete gradient: disabled
  Impulse pair metric correction: disabled  (mode = pair discrete-gradient, cutoff = all pairs, inner/outer = 0/0, eps = 0.001, linear scale = 1, angular scale = 0)
  Impulse metric correction: disabled  (internal load constraint = disabled)
  Impulse variational defect probe: disabled
  Impulse quadratic pressure: disabled  (scale = 1)
  Added-mass stab:   disabled
  Exact BEM geometry: disabled
  Exact singular BEM: disabled
  Legacy singular SLP diagnostic: disabled
  Phi-dot blend:     0 (off)

  Solver guidance:
    - Strong coupling: use for stiff close-coupled runs; slower but more implicit.
    - Impulse scheme: use when impulse/momentum conservation or KE drift is the focus. Recommended.
    - Added-mass stab: use for higher mesh counts (ndiv > 3) to preserve stability - deprecated.
================================================
Solver starting - good luck!

Initial state:
  Body  1
    density:          10.000000
    shape axes ratio: (1.000000, 0.700000, 0.700000)
    initial KE ratio: 1.500000
    position:         (-5.500000, 0.000000, 0.000000)
    velocity:         (-0.402404, -1.483499, 2.480360)
    angular velocity: (6.124644, 1.340756, 0.411731)
    orientation:      (w=0.435508, i=-0.055639, j=0.817742, k=-0.372204)
  Body  2
    density:          10.000000
    shape axes ratio: (1.000000, 0.700000, 0.700000)
    initial KE ratio: 1.500000
    position:         (5.500000, 0.000000, 0.000000)
    velocity:         (-0.488879, -1.802296, 3.013378)
    angular velocity: (-0.683799, 5.339235, 3.240895)
    orientation:      (w=0.925040, i=-0.221228, j=0.063316, k=-0.302243)

Preparing first step: implicit scheme, no bootstrap passes required.
First step may take longer than later steps.

First step completed in 0.205 s.

Step   100/2000    5.0% | t 5.000 | ETA 2m 29s | step 0.10s | KE 1148.8075 | drift +0.01% | fluid 30.1276 | solid 1118.6799
  Impulse FP iterations last/mean/max 7/6.52/8
Step   200/2000   10.0% | t 10.000 | ETA 2m 34s | step 0.10s | KE 1149.4345 | drift +0.06% | fluid 31.5414 | solid 1117.8930
  Impulse FP iterations last/mean/max 7/6.50/8
Step   300/2000   15.0% | t 15.000 | ETA 2m 30s | step 0.09s | KE 1150.2264 | drift +0.13% | fluid 29.5029 | solid 1120.7235
  Impulse FP iterations last/mean/max 7/6.53/8
Step   400/2000   20.0% | t 20.000 | ETA 2m 23s | step 0.09s | KE 1150.8908 | drift +0.19% | fluid 26.4052 | solid 1124.4856
  Impulse FP iterations last/mean/max 7/6.54/8
Step   500/2000   25.0% | t 25.000 | ETA 2m 15s | step 0.10s | KE 1151.2004 | drift +0.22% | fluid 27.8753 | solid 1123.3251
  Impulse FP iterations last/mean/max 7/6.53/8
Step   600/2000   30.0% | t 30.000 | ETA 2m 6s | step 0.10s | KE 1151.3827 | drift +0.23% | fluid 30.7108 | solid 1120.6719
  Impulse FP iterations last/mean/max 7/6.53/8
Step   700/2000   35.0% | t 35.000 | ETA 1m 58s | step 0.10s | KE 1151.6009 | drift +0.25% | fluid 28.4284 | solid 1123.1725
  Impulse FP iterations last/mean/max 7/6.53/8
Step   800/2000   40.0% | t 40.000 | ETA 1m 49s | step 0.09s | KE 1151.6525 | drift +0.26% | fluid 29.6363 | solid 1122.0162
  Impulse FP iterations last/mean/max 7/6.53/8
Step   900/2000   45.0% | t 45.000 | ETA 1m 40s | step 0.10s | KE 1151.6554 | drift +0.26% | fluid 29.4938 | solid 1122.1616
  Impulse FP iterations last/mean/max 7/6.53/8
Step  1000/2000   50.0% | t 50.000 | ETA 1m 31s | step 0.09s | KE 1151.7757 | drift +0.27% | fluid 26.4327 | solid 1125.3431
  Impulse FP iterations last/mean/max 7/6.54/8
Step  1100/2000   55.0% | t 55.000 | ETA 1m 22s | step 0.10s | KE 1151.7973 | drift +0.27% | fluid 26.0008 | solid 1125.7965
  Impulse FP iterations last/mean/max 7/6.53/8
Step  1200/2000   60.0% | t 60.000 | ETA 1m 13s | step 0.09s | KE 1151.7335 | drift +0.26% | fluid 30.0329 | solid 1121.7006
  Impulse FP iterations last/mean/max 6/6.53/8
Step  1300/2000   65.0% | t 65.000 | ETA 1m 4s | step 0.09s | KE 1151.8092 | drift +0.27% | fluid 28.6434 | solid 1123.1658
  Impulse FP iterations last/mean/max 7/6.53/8
Step  1400/2000   70.0% | t 70.000 | ETA 55s | step 0.10s | KE 1151.8406 | drift +0.27% | fluid 28.6775 | solid 1123.1631
  Impulse FP iterations last/mean/max 7/6.53/8
Step  1500/2000   75.0% | t 75.000 | ETA 46s | step 0.10s | KE 1151.7690 | drift +0.27% | fluid 29.5744 | solid 1122.1946
  Impulse FP iterations last/mean/max 7/6.53/8
Step  1600/2000   80.0% | t 80.000 | ETA 36s | step 0.10s | KE 1151.8249 | drift +0.27% | fluid 27.4291 | solid 1124.3958
  Impulse FP iterations last/mean/max 7/6.53/8
Step  1700/2000   85.0% | t 85.000 | ETA 27s | step 0.10s | KE 1151.8811 | drift +0.28% | fluid 24.9017 | solid 1126.9794
  Impulse FP iterations last/mean/max 7/6.53/8
Step  1800/2000   90.0% | t 90.000 | ETA 18s | step 0.09s | KE 1151.7972 | drift +0.27% | fluid 28.8777 | solid 1122.9195
  Impulse FP iterations last/mean/max 7/6.53/8
Step  1900/2000   95.0% | t 95.000 | ETA 9s | step 0.09s | KE 1151.8135 | drift +0.27% | fluid 29.0808 | solid 1122.7327
  Impulse FP iterations last/mean/max 7/6.53/8
Solver finished successfully - good job!
Results saved successfully.

================== Run summary ==================
  Bodies:            2
  Triangles / nodes: 256 / 516
  Timesteps:         2000  (dt = 0.05)
  Simulated time:    0 -> 100
  First-step setup:  0.205 s
  Mean time/step:    0.0919 s  (excl. first step)
  Total wall time:   3m 3s
  Impulse FP iters last/mean/max: 7 / 6.530 / 8
  Approx impulse solves/step:     6.530
  Impulse start cache hits/direct: 1999 / 1
  Impulse global drift P/H:       8.712165e-9 / 8.631904e-3
  Impulse per-body max drift P/H: 1.154236e-8 / 1.088190e-3
  CPU cores:         256 available, 8 Rayon worker thread(s)
  Started:           2026-06-24 01:18:35
  Finished:          2026-06-24 01:21:39
  Output file:       /work/e643/e643/shared/multi_ellip/studies/two_body_paper_sweeps/runs/spheroid_1_0p7_0p7/spheroid_1_0p7_0p7_rho10_E1p5_sep11_run05_impulse_noproj/multiple_body_complete.dat
================================================
