
================ Simulation setup ================
  Run label:         /work/e643/e643/shared/multi_ellip/studies/departing_sphericity_sweep/runs/triaxial/homogeneous/triaxial_homogeneous_eps0p1_rho1_E0p5_sep8_run04_impulse_noproj/
  Started:           2026-06-24 02:30:21
  Input file:        /work/e643/e643/shared/multi_ellip/studies/departing_sphericity_sweep/runs/triaxial/homogeneous/triaxial_homogeneous_eps0p1_rho1_E0p5_sep8_run04_impulse_noproj/input.txt
  Output file:       /work/e643/e643/shared/multi_ellip/studies/departing_sphericity_sweep/runs/triaxial/homogeneous/triaxial_homogeneous_eps0p1_rho1_E0p5_sep8_run04_impulse_noproj/multiple_body_complete.dat
  Bodies:            2
  Fluid density:     1
  Mesh:              ndiv 2 -> 256 triangles / 516 nodes
  Simulated time:    0 -> 100  (dt = 0.05, ~2000 steps)
  Output cadence:    every 1 step(s)
  Output rows:       ~2001
  Progress cadence:  every 100 step(s)
  CPU cores:         256 available, 8 Rayon worker thread(s)
  Strong coupling:   disabled
  Impulse scheme:    enabled
  Hamiltonian step:  disabled
  Hamiltonian midpt: disabled
  Variational step:  disabled
  Energy projection: disabled
  Projection particular metric: Euclidean
  Fluid KE gradient: disabled  (eps = 0.001, scale = 1, linear = 1, angular = 1)
  Fluid KE discrete gradient: disabled
  Impulse pair metric correction: disabled  (mode = pair discrete-gradient, cutoff = all pairs, inner/outer = 0/0, eps = 0.001, linear scale = 1, angular scale = 0)
  Impulse metric correction: disabled  (internal load constraint = disabled)
  Impulse variational defect probe: disabled
  Impulse quadratic pressure: disabled  (scale = 1)
  Added-mass stab:   disabled
  Exact BEM geometry: disabled
  Exact singular BEM: disabled
  Legacy singular SLP diagnostic: disabled
  Phi-dot blend:     0 (off)

  Solver guidance:
    - Strong coupling: use for stiff close-coupled runs; slower but more implicit.
    - Impulse scheme: use when impulse/momentum conservation or KE drift is the focus. Recommended.
    - Added-mass stab: use for higher mesh counts (ndiv > 3) to preserve stability - deprecated.
================================================
Solver starting - good luck!

Initial state:
  Body  1
    density:          1.000000
    shape axes ratio: (1.000000, 0.909091, 0.826446)
    initial KE ratio: 0.500000
    position:         (-4.000000, 0.000000, 0.000000)
    velocity:         (1.941388, 1.608673, -4.803327)
    angular velocity: (5.836607, -1.873625, 1.379118)
    orientation:      (w=0.794541, i=-0.005031, j=-0.604427, k=0.057859)
  Body  2
    density:          1.000000
    shape axes ratio: (1.000000, 0.909091, 0.826446)
    initial KE ratio: 0.500000
    position:         (4.000000, 0.000000, 0.000000)
    velocity:         (2.025502, 1.678372, -5.011439)
    angular velocity: (3.236008, -4.257270, 3.298837)
    orientation:      (w=0.723759, i=0.675230, j=-0.138848, k=0.030979)

Preparing first step: implicit scheme, no bootstrap passes required.
First step may take longer than later steps.

First step completed in 0.259 s.

Step   100/2000    5.0% | t 5.000 | ETA 4m 0s | step 0.12s | KE 268.6371 | drift +0.22% | fluid 71.6140 | solid 197.0231
  Impulse FP iterations last/mean/max 9/8.98/9
Step   200/2000   10.0% | t 10.000 | ETA 3m 44s | step 0.13s | KE 267.9187 | drift -0.05% | fluid 73.7952 | solid 194.1235
  Impulse FP iterations last/mean/max 10/8.99/10
Step   300/2000   15.0% | t 15.000 | ETA 3m 26s | step 0.12s | KE 268.6222 | drift +0.21% | fluid 69.6360 | solid 198.9862
  Impulse FP iterations last/mean/max 9/8.99/10
Step   400/2000   20.0% | t 20.000 | ETA 3m 13s | step 0.11s | KE 269.3822 | drift +0.50% | fluid 72.1020 | solid 197.2802
  Impulse FP iterations last/mean/max 9/8.99/10
Step   500/2000   25.0% | t 25.000 | ETA 3m 2s | step 0.12s | KE 269.5014 | drift +0.54% | fluid 70.1737 | solid 199.3277
  Impulse FP iterations last/mean/max 9/8.99/10
Step   600/2000   30.0% | t 30.000 | ETA 2m 52s | step 0.13s | KE 269.4709 | drift +0.53% | fluid 70.3690 | solid 199.1019
  Impulse FP iterations last/mean/max 9/8.98/10
Step   700/2000   35.0% | t 35.000 | ETA 2m 41s | step 0.13s | KE 269.3872 | drift +0.50% | fluid 69.8142 | solid 199.5730
  Impulse FP iterations last/mean/max 9/8.99/10
Step   800/2000   40.0% | t 40.000 | ETA 2m 29s | step 0.14s | KE 269.5991 | drift +0.58% | fluid 73.2256 | solid 196.3735
  Impulse FP iterations last/mean/max 9/8.99/10
Step   900/2000   45.0% | t 45.000 | ETA 2m 17s | step 0.13s | KE 269.9566 | drift +0.71% | fluid 70.9630 | solid 198.9937
  Impulse FP iterations last/mean/max 9/8.99/10
Step  1000/2000   50.0% | t 50.000 | ETA 2m 5s | step 0.13s | KE 269.9023 | drift +0.69% | fluid 73.6801 | solid 196.2222
  Impulse FP iterations last/mean/max 9/8.99/10
Step  1100/2000   55.0% | t 55.000 | ETA 1m 53s | step 0.12s | KE 270.3049 | drift +0.84% | fluid 69.1896 | solid 201.1153
  Impulse FP iterations last/mean/max 9/8.99/10
Step  1200/2000   60.0% | t 60.000 | ETA 1m 40s | step 0.13s | KE 270.5604 | drift +0.94% | fluid 70.8687 | solid 199.6917
  Impulse FP iterations last/mean/max 9/8.99/10
Step  1300/2000   65.0% | t 65.000 | ETA 1m 28s | step 0.13s | KE 270.5380 | drift +0.93% | fluid 70.0836 | solid 200.4544
  Impulse FP iterations last/mean/max 9/8.99/10
Step  1400/2000   70.0% | t 70.000 | ETA 1m 15s | step 0.14s | KE 270.3571 | drift +0.86% | fluid 72.4381 | solid 197.9191
  Impulse FP iterations last/mean/max 9/8.99/10
Step  1500/2000   75.0% | t 75.000 | ETA 1m 3s | step 0.13s | KE 270.5642 | drift +0.94% | fluid 68.4329 | solid 202.1313
  Impulse FP iterations last/mean/max 9/8.99/10
Step  1600/2000   80.0% | t 80.000 | ETA 50s | step 0.13s | KE 270.2957 | drift +0.84% | fluid 71.6342 | solid 198.6616
  Impulse FP iterations last/mean/max 9/8.99/10
Step  1700/2000   85.0% | t 85.000 | ETA 38s | step 0.14s | KE 270.5045 | drift +0.91% | fluid 72.2479 | solid 198.2566
  Impulse FP iterations last/mean/max 9/8.99/10
Step  1800/2000   90.0% | t 90.000 | ETA 25s | step 0.12s | KE 270.5999 | drift +0.95% | fluid 73.5760 | solid 197.0240
  Impulse FP iterations last/mean/max 9/8.99/10
Step  1900/2000   95.0% | t 95.000 | ETA 12s | step 0.10s | KE 270.5844 | drift +0.94% | fluid 71.4857 | solid 199.0987
  Impulse FP iterations last/mean/max 9/8.99/10
Solver finished successfully - good job!
Results saved successfully.

================== Run summary ==================
  Bodies:            2
  Triangles / nodes: 256 / 516
  Timesteps:         2000  (dt = 0.05)
  Simulated time:    0 -> 100
  First-step setup:  0.259 s
  Mean time/step:    0.1248 s  (excl. first step)
  Total wall time:   4m 9s
  Impulse FP iters last/mean/max: 9 / 8.991 / 10
  Approx impulse solves/step:     8.991
  Impulse start cache hits/direct: 1999 / 1
  Impulse global drift P/H:       1.454952e-8 / 1.769477e-2
  Impulse per-body max drift P/H: 2.048874e-8 / 1.518683e-3
  CPU cores:         256 available, 8 Rayon worker thread(s)
  Started:           2026-06-24 02:30:21
  Finished:          2026-06-24 02:34:31
  Output file:       /work/e643/e643/shared/multi_ellip/studies/departing_sphericity_sweep/runs/triaxial/homogeneous/triaxial_homogeneous_eps0p1_rho1_E0p5_sep8_run04_impulse_noproj/multiple_body_complete.dat
================================================
