
================ Simulation setup ================
  Run label:         /work/e643/e643/shared/multi_ellip/studies/departing_sphericity_sweep/runs/triaxial/homogeneous/triaxial_homogeneous_eps0p3_rho1_E0p5_sep8_run02_impulse_noproj/
  Started:           2026-06-24 02:30:21
  Input file:        /work/e643/e643/shared/multi_ellip/studies/departing_sphericity_sweep/runs/triaxial/homogeneous/triaxial_homogeneous_eps0p3_rho1_E0p5_sep8_run02_impulse_noproj/input.txt
  Output file:       /work/e643/e643/shared/multi_ellip/studies/departing_sphericity_sweep/runs/triaxial/homogeneous/triaxial_homogeneous_eps0p3_rho1_E0p5_sep8_run02_impulse_noproj/multiple_body_complete.dat
  Bodies:            2
  Fluid density:     1
  Mesh:              ndiv 2 -> 256 triangles / 516 nodes
  Simulated time:    0 -> 100  (dt = 0.05, ~2000 steps)
  Output cadence:    every 1 step(s)
  Output rows:       ~2001
  Progress cadence:  every 100 step(s)
  CPU cores:         256 available, 8 Rayon worker thread(s)
  Strong coupling:   disabled
  Impulse scheme:    enabled
  Hamiltonian step:  disabled
  Hamiltonian midpt: disabled
  Variational step:  disabled
  Energy projection: disabled
  Projection particular metric: Euclidean
  Fluid KE gradient: disabled  (eps = 0.001, scale = 1, linear = 1, angular = 1)
  Fluid KE discrete gradient: disabled
  Impulse pair metric correction: disabled  (mode = pair discrete-gradient, cutoff = all pairs, inner/outer = 0/0, eps = 0.001, linear scale = 1, angular scale = 0)
  Impulse metric correction: disabled  (internal load constraint = disabled)
  Impulse variational defect probe: disabled
  Impulse quadratic pressure: disabled  (scale = 1)
  Added-mass stab:   disabled
  Exact BEM geometry: disabled
  Exact singular BEM: disabled
  Legacy singular SLP diagnostic: disabled
  Phi-dot blend:     0 (off)

  Solver guidance:
    - Strong coupling: use for stiff close-coupled runs; slower but more implicit.
    - Impulse scheme: use when impulse/momentum conservation or KE drift is the focus. Recommended.
    - Added-mass stab: use for higher mesh counts (ndiv > 3) to preserve stability - deprecated.
================================================
Solver starting - good luck!

Initial state:
  Body  1
    density:          1.000000
    shape axes ratio: (1.000000, 0.769231, 0.591716)
    initial KE ratio: 0.500000
    position:         (-4.000000, 0.000000, 0.000000)
    velocity:         (-2.264684, 1.559100, 5.415340)
    angular velocity: (-3.267417, 2.351647, 4.824123)
    orientation:      (w=0.477497, i=-0.510335, j=-0.500251, k=0.511178)
  Body  2
    density:          1.000000
    shape axes ratio: (1.000000, 0.769231, 0.591716)
    initial KE ratio: 0.500000
    position:         (4.000000, 0.000000, 0.000000)
    velocity:         (-2.104867, 1.449075, 5.033184)
    angular velocity: (3.924288, -4.855405, -0.709523)
    orientation:      (w=0.568554, i=0.235526, j=0.700924, k=0.360526)

Preparing first step: implicit scheme, no bootstrap passes required.
First step may take longer than later steps.

First step completed in 0.302 s.

Step   100/2000    5.0% | t 5.000 | ETA 5m 10s | step 0.16s | KE 304.3118 | drift -0.46% | fluid 99.5718 | solid 204.7400
  Impulse FP iterations last/mean/max 11/11.37/12
Step   200/2000   10.0% | t 10.000 | ETA 4m 55s | step 0.14s | KE 305.2023 | drift -0.16% | fluid 91.7758 | solid 213.4265
  Impulse FP iterations last/mean/max 10/11.40/12
Step   300/2000   15.0% | t 15.000 | ETA 4m 38s | step 0.16s | KE 305.4710 | drift -0.08% | fluid 83.0154 | solid 222.4556
  Impulse FP iterations last/mean/max 11/11.38/12
Step   400/2000   20.0% | t 20.000 | ETA 4m 21s | step 0.17s | KE 307.7341 | drift +0.66% | fluid 86.3943 | solid 221.3397
  Impulse FP iterations last/mean/max 12/11.38/12
Step   500/2000   25.0% | t 25.000 | ETA 4m 5s | step 0.15s | KE 306.1673 | drift +0.15% | fluid 94.5940 | solid 211.5733
  Impulse FP iterations last/mean/max 11/11.36/13
Step   600/2000   30.0% | t 30.000 | ETA 3m 48s | step 0.16s | KE 306.1053 | drift +0.13% | fluid 89.2761 | solid 216.8292
  Impulse FP iterations last/mean/max 11/11.36/13
Step   700/2000   35.0% | t 35.000 | ETA 3m 32s | step 0.14s | KE 305.9849 | drift +0.09% | fluid 93.8114 | solid 212.1735
  Impulse FP iterations last/mean/max 10/11.37/13
Step   800/2000   40.0% | t 40.000 | ETA 3m 15s | step 0.16s | KE 305.5494 | drift -0.05% | fluid 88.4597 | solid 217.0896
  Impulse FP iterations last/mean/max 11/11.37/13
Step   900/2000   45.0% | t 45.000 | ETA 2m 59s | step 0.15s | KE 306.2985 | drift +0.19% | fluid 85.0074 | solid 221.2911
  Impulse FP iterations last/mean/max 11/11.36/13
Step  1000/2000   50.0% | t 50.000 | ETA 2m 43s | step 0.16s | KE 306.4405 | drift +0.24% | fluid 86.1175 | solid 220.3230
  Impulse FP iterations last/mean/max 12/11.37/13
Step  1100/2000   55.0% | t 55.000 | ETA 2m 26s | step 0.17s | KE 306.5685 | drift +0.28% | fluid 83.5772 | solid 222.9913
  Impulse FP iterations last/mean/max 12/11.36/13
Step  1200/2000   60.0% | t 60.000 | ETA 2m 10s | step 0.16s | KE 306.8909 | drift +0.39% | fluid 87.6004 | solid 219.2905
  Impulse FP iterations last/mean/max 11/11.35/13
Step  1300/2000   65.0% | t 65.000 | ETA 1m 53s | step 0.17s | KE 305.9657 | drift +0.08% | fluid 92.6179 | solid 213.3478
  Impulse FP iterations last/mean/max 12/11.35/13
Step  1400/2000   70.0% | t 70.000 | ETA 1m 37s | step 0.15s | KE 306.6655 | drift +0.31% | fluid 85.0153 | solid 221.6502
  Impulse FP iterations last/mean/max 12/11.34/13
Step  1500/2000   75.0% | t 75.000 | ETA 1m 20s | step 0.13s | KE 306.3004 | drift +0.19% | fluid 90.8628 | solid 215.4376
  Impulse FP iterations last/mean/max 11/11.34/13
Step  1600/2000   80.0% | t 80.000 | ETA 1m 3s | step 0.12s | KE 307.2129 | drift +0.49% | fluid 89.4119 | solid 217.8010
  Impulse FP iterations last/mean/max 11/11.33/13
Step  1700/2000   85.0% | t 85.000 | ETA 47s | step 0.12s | KE 306.6887 | drift +0.32% | fluid 85.9225 | solid 220.7663
  Impulse FP iterations last/mean/max 11/11.33/13
Step  1800/2000   90.0% | t 90.000 | ETA 31s | step 0.12s | KE 306.5697 | drift +0.28% | fluid 83.5270 | solid 223.0426
  Impulse FP iterations last/mean/max 11/11.33/13
Step  1900/2000   95.0% | t 95.000 | ETA 15s | step 0.13s | KE 306.5692 | drift +0.28% | fluid 93.9123 | solid 212.6569
  Impulse FP iterations last/mean/max 12/11.32/13
Solver finished successfully - good job!
Results saved successfully.

================== Run summary ==================
  Bodies:            2
  Triangles / nodes: 256 / 516
  Timesteps:         2000  (dt = 0.05)
  Simulated time:    0 -> 100
  First-step setup:  0.302 s
  Mean time/step:    0.1517 s  (excl. first step)
  Total wall time:   5m 3s
  Impulse FP iters last/mean/max: 11 / 11.318 / 13
  Approx impulse solves/step:     11.318
  Impulse start cache hits/direct: 1999 / 1
  Impulse global drift P/H:       1.065130e-8 / 2.587409e-2
  Impulse per-body max drift P/H: 1.448235e-8 / 1.923730e-3
  CPU cores:         256 available, 8 Rayon worker thread(s)
  Started:           2026-06-24 02:30:21
  Finished:          2026-06-24 02:35:25
  Output file:       /work/e643/e643/shared/multi_ellip/studies/departing_sphericity_sweep/runs/triaxial/homogeneous/triaxial_homogeneous_eps0p3_rho1_E0p5_sep8_run02_impulse_noproj/multiple_body_complete.dat
================================================
