
================ Simulation setup ================
  Run label:         /work/e643/e643/shared/multi_ellip/studies/departing_sphericity_sweep/runs/spheroid_prolate/homogeneous/spheroid_prolate_homogeneous_eps1_rho1_E0p5_sep8_run05_impulse_noproj/
  Started:           2026-06-24 02:30:38
  Input file:        /work/e643/e643/shared/multi_ellip/studies/departing_sphericity_sweep/runs/spheroid_prolate/homogeneous/spheroid_prolate_homogeneous_eps1_rho1_E0p5_sep8_run05_impulse_noproj/input.txt
  Output file:       /work/e643/e643/shared/multi_ellip/studies/departing_sphericity_sweep/runs/spheroid_prolate/homogeneous/spheroid_prolate_homogeneous_eps1_rho1_E0p5_sep8_run05_impulse_noproj/multiple_body_complete.dat
  Bodies:            2
  Fluid density:     1
  Mesh:              ndiv 2 -> 256 triangles / 516 nodes
  Simulated time:    0 -> 100  (dt = 0.05, ~2000 steps)
  Output cadence:    every 1 step(s)
  Output rows:       ~2001
  Progress cadence:  every 100 step(s)
  CPU cores:         256 available, 8 Rayon worker thread(s)
  Strong coupling:   disabled
  Impulse scheme:    enabled
  Hamiltonian step:  disabled
  Hamiltonian midpt: disabled
  Variational step:  disabled
  Energy projection: disabled
  Projection particular metric: Euclidean
  Fluid KE gradient: disabled  (eps = 0.001, scale = 1, linear = 1, angular = 1)
  Fluid KE discrete gradient: disabled
  Impulse pair metric correction: disabled  (mode = pair discrete-gradient, cutoff = all pairs, inner/outer = 0/0, eps = 0.001, linear scale = 1, angular scale = 0)
  Impulse metric correction: disabled  (internal load constraint = disabled)
  Impulse variational defect probe: disabled
  Impulse quadratic pressure: disabled  (scale = 1)
  Added-mass stab:   disabled
  Exact BEM geometry: disabled
  Exact singular BEM: disabled
  Legacy singular SLP diagnostic: disabled
  Phi-dot blend:     0 (off)

  Solver guidance:
    - Strong coupling: use for stiff close-coupled runs; slower but more implicit.
    - Impulse scheme: use when impulse/momentum conservation or KE drift is the focus. Recommended.
    - Added-mass stab: use for higher mesh counts (ndiv > 3) to preserve stability - deprecated.
================================================
Solver starting - good luck!

Initial state:
  Body  1
    density:          1.000000
    shape axes ratio: (1.000000, 0.125000, 0.125000)
    initial KE ratio: 0.500000
    position:         (-4.000000, 0.000000, 0.000000)
    velocity:         (-4.292860, -9.867521, 7.841160)
    angular velocity: (3.548514, 5.171626, 0.375159)
    orientation:      (w=0.108218, i=0.706437, j=0.603120, k=-0.354235)
  Body  2
    density:          1.000000
    shape axes ratio: (1.000000, 0.125000, 0.125000)
    initial KE ratio: 0.500000
    position:         (4.000000, 0.000000, 0.000000)
    velocity:         (-2.263028, -5.201772, 4.133553)
    angular velocity: (5.736872, 1.364243, -2.169230)
    orientation:      (w=-0.502075, i=-0.050765, j=0.834602, k=-0.220868)

Preparing first step: implicit scheme, no bootstrap passes required.
First step may take longer than later steps.

First step completed in 0.428 s.

Step   100/2000    5.0% | t 5.000 | ETA 6m 20s | step 0.21s | KE 1182.3387 | drift +0.22% | fluid 420.8251 | solid 761.5136
  Impulse FP iterations last/mean/max 14/13.60/15
Step   200/2000   10.0% | t 10.000 | ETA 5m 59s | step 0.22s | KE 1177.2341 | drift -0.21% | fluid 417.2494 | solid 759.9848
  Impulse FP iterations last/mean/max 14/13.62/15
Step   300/2000   15.0% | t 15.000 | ETA 5m 38s | step 0.21s | KE 1181.7772 | drift +0.18% | fluid 418.1881 | solid 763.5891
  Impulse FP iterations last/mean/max 14/13.58/15
Step   400/2000   20.0% | t 20.000 | ETA 5m 17s | step 0.20s | KE 1178.1505 | drift -0.13% | fluid 402.8241 | solid 775.3263
  Impulse FP iterations last/mean/max 14/13.58/15
Step   500/2000   25.0% | t 25.000 | ETA 4m 57s | step 0.20s | KE 1181.7708 | drift +0.17% | fluid 388.0914 | solid 793.6794
  Impulse FP iterations last/mean/max 14/13.58/15
Step   600/2000   30.0% | t 30.000 | ETA 4m 38s | step 0.21s | KE 1179.3243 | drift -0.03% | fluid 369.5536 | solid 809.7707
  Impulse FP iterations last/mean/max 14/13.57/15
Step   700/2000   35.0% | t 35.000 | ETA 4m 18s | step 0.21s | KE 1181.8823 | drift +0.18% | fluid 354.6052 | solid 827.2771
  Impulse FP iterations last/mean/max 14/13.59/16
Step   800/2000   40.0% | t 40.000 | ETA 3m 58s | step 0.20s | KE 1180.1506 | drift +0.04% | fluid 342.2003 | solid 837.9503
  Impulse FP iterations last/mean/max 14/13.60/16
Step   900/2000   45.0% | t 45.000 | ETA 3m 38s | step 0.20s | KE 1181.8438 | drift +0.18% | fluid 336.9699 | solid 844.8739
  Impulse FP iterations last/mean/max 14/13.59/16
Step  1000/2000   50.0% | t 50.000 | ETA 3m 18s | step 0.19s | KE 1180.3694 | drift +0.06% | fluid 335.4912 | solid 844.8782
  Impulse FP iterations last/mean/max 13/13.58/16
Step  1100/2000   55.0% | t 55.000 | ETA 2m 58s | step 0.19s | KE 1181.6229 | drift +0.16% | fluid 342.4827 | solid 839.1402
  Impulse FP iterations last/mean/max 14/13.57/16
Step  1200/2000   60.0% | t 60.000 | ETA 2m 37s | step 0.19s | KE 1179.9383 | drift +0.02% | fluid 353.2386 | solid 826.6998
  Impulse FP iterations last/mean/max 14/13.57/16
Step  1300/2000   65.0% | t 65.000 | ETA 2m 16s | step 0.17s | KE 1181.2208 | drift +0.13% | fluid 371.0434 | solid 810.1774
  Impulse FP iterations last/mean/max 14/13.57/16
Step  1400/2000   70.0% | t 70.000 | ETA 1m 56s | step 0.16s | KE 1178.9032 | drift -0.07% | fluid 391.3608 | solid 787.5425
  Impulse FP iterations last/mean/max 14/13.57/16
Step  1500/2000   75.0% | t 75.000 | ETA 1m 35s | step 0.15s | KE 1180.6722 | drift +0.08% | fluid 415.0452 | solid 765.6270
  Impulse FP iterations last/mean/max 14/13.57/16
Step  1600/2000   80.0% | t 80.000 | ETA 1m 15s | step 0.16s | KE 1177.5366 | drift -0.18% | fluid 434.7446 | solid 742.7920
  Impulse FP iterations last/mean/max 14/13.57/16
Step  1700/2000   85.0% | t 85.000 | ETA 55s | step 0.13s | KE 1180.2492 | drift +0.05% | fluid 454.8864 | solid 725.3627
  Impulse FP iterations last/mean/max 13/13.57/16
Step  1800/2000   90.0% | t 90.000 | ETA 36s | step 0.13s | KE 1176.4584 | drift -0.28% | fluid 458.5071 | solid 717.9513
  Impulse FP iterations last/mean/max 14/13.57/16
Step  1900/2000   95.0% | t 95.000 | ETA 17s | step 0.13s | KE 1180.4460 | drift +0.06% | fluid 466.6650 | solid 713.7810
  Impulse FP iterations last/mean/max 14/13.57/16
Solver finished successfully - good job!
Results saved successfully.

================== Run summary ==================
  Bodies:            2
  Triangles / nodes: 256 / 516
  Timesteps:         2000  (dt = 0.05)
  Simulated time:    0 -> 100
  First-step setup:  0.428 s
  Mean time/step:    0.1759 s  (excl. first step)
  Total wall time:   5m 52s
  Impulse FP iters last/mean/max: 14 / 13.566 / 16
  Approx impulse solves/step:     13.566
  Impulse start cache hits/direct: 1999 / 1
  Impulse global drift P/H:       6.155964e-9 / 1.078040e-2
  Impulse per-body max drift P/H: 8.210303e-9 / 6.995730e-3
  CPU cores:         256 available, 8 Rayon worker thread(s)
  Started:           2026-06-24 02:30:38
  Finished:          2026-06-24 02:36:30
  Output file:       /work/e643/e643/shared/multi_ellip/studies/departing_sphericity_sweep/runs/spheroid_prolate/homogeneous/spheroid_prolate_homogeneous_eps1_rho1_E0p5_sep8_run05_impulse_noproj/multiple_body_complete.dat
================================================
