
================ Simulation setup ================
  Run label:         /work/e643/e643/shared/multi_ellip/studies/departing_sphericity_sweep/runs/triaxial/heterogeneous_sphere/triaxial_heterogeneous_sphere_eps0p0003_rho1_E0p5_sep8_run02_impulse_noproj/
  Started:           2026-06-24 02:37:14
  Input file:        /work/e643/e643/shared/multi_ellip/studies/departing_sphericity_sweep/runs/triaxial/heterogeneous_sphere/triaxial_heterogeneous_sphere_eps0p0003_rho1_E0p5_sep8_run02_impulse_noproj/input.txt
  Output file:       /work/e643/e643/shared/multi_ellip/studies/departing_sphericity_sweep/runs/triaxial/heterogeneous_sphere/triaxial_heterogeneous_sphere_eps0p0003_rho1_E0p5_sep8_run02_impulse_noproj/multiple_body_complete.dat
  Bodies:            2
  Fluid density:     1
  Mesh:              ndiv 2 -> 256 triangles / 516 nodes
  Simulated time:    0 -> 100  (dt = 0.05, ~2000 steps)
  Output cadence:    every 1 step(s)
  Output rows:       ~2001
  Progress cadence:  every 100 step(s)
  CPU cores:         256 available, 8 Rayon worker thread(s)
  Strong coupling:   disabled
  Impulse scheme:    enabled
  Hamiltonian step:  disabled
  Hamiltonian midpt: disabled
  Variational step:  disabled
  Energy projection: disabled
  Projection particular metric: Euclidean
  Fluid KE gradient: disabled  (eps = 0.001, scale = 1, linear = 1, angular = 1)
  Fluid KE discrete gradient: disabled
  Impulse pair metric correction: disabled  (mode = pair discrete-gradient, cutoff = all pairs, inner/outer = 0/0, eps = 0.001, linear scale = 1, angular scale = 0)
  Impulse metric correction: disabled  (internal load constraint = disabled)
  Impulse variational defect probe: disabled
  Impulse quadratic pressure: disabled  (scale = 1)
  Added-mass stab:   disabled
  Exact BEM geometry: disabled
  Exact singular BEM: disabled
  Legacy singular SLP diagnostic: disabled
  Phi-dot blend:     0 (off)

  Solver guidance:
    - Strong coupling: use for stiff close-coupled runs; slower but more implicit.
    - Impulse scheme: use when impulse/momentum conservation or KE drift is the focus. Recommended.
    - Added-mass stab: use for higher mesh counts (ndiv > 3) to preserve stability - deprecated.
================================================
Solver starting - good luck!

Initial state:
  Body  1
    density:          1.000000
    shape axes ratio: (1.000000, 0.999700, 0.999400)
    initial KE ratio: 0.500000
    position:         (-4.000000, 0.000000, 0.000000)
    velocity:         (-2.204128, 4.015011, -3.256485)
    angular velocity: (-0.240454, 6.123109, -1.388575)
    orientation:      (w=0.456529, i=0.698246, j=0.321003, k=-0.448320)
  Body  2
    density:          1.000000
    shape axes ratio: (1.000000, 1.000000, 1.000000)
    initial KE ratio: 0.500000
    position:         (4.000000, 0.000000, 0.000000)
    velocity:         (-2.204112, 4.014982, -3.256461)
    angular velocity: (4.538215, 2.574053, 3.501039)
    orientation:      (w=0.278954, i=-0.042127, j=-0.888888, k=0.360954)

Preparing first step: implicit scheme, no bootstrap passes required.
First step may take longer than later steps.

First step completed in 0.283 s.

Step   100/2000    5.0% | t 5.000 | ETA 2m 51s | step 0.10s | KE 280.2924 | drift +3.44% | fluid 72.5102 | solid 207.7822
  Impulse FP iterations last/mean/max 7/6.36/7
Step   200/2000   10.0% | t 10.000 | ETA 2m 42s | step 0.08s | KE 291.3268 | drift +7.52% | fluid 72.5159 | solid 218.8109
  Impulse FP iterations last/mean/max 6/6.41/7
Step   300/2000   15.0% | t 15.000 | ETA 2m 34s | step 0.10s | KE 304.0565 | drift +12.21% | fluid 72.5155 | solid 231.5409
  Impulse FP iterations last/mean/max 7/6.45/7
Step   400/2000   20.0% | t 20.000 | ETA 2m 27s | step 0.10s | KE 318.4766 | drift +17.54% | fluid 72.5168 | solid 245.9598
  Impulse FP iterations last/mean/max 7/6.50/7
Step   500/2000   25.0% | t 25.000 | ETA 2m 17s | step 0.09s | KE 334.5829 | drift +23.48% | fluid 72.5093 | solid 262.0736
  Impulse FP iterations last/mean/max 7/6.53/7
Step   600/2000   30.0% | t 30.000 | ETA 2m 7s | step 0.08s | KE 352.3707 | drift +30.05% | fluid 72.5097 | solid 279.8610
  Impulse FP iterations last/mean/max 6/6.58/7
Step   700/2000   35.0% | t 35.000 | ETA 1m 58s | step 0.09s | KE 371.8369 | drift +37.23% | fluid 72.5168 | solid 299.3201
  Impulse FP iterations last/mean/max 7/6.63/7
Step   800/2000   40.0% | t 40.000 | ETA 1m 50s | step 0.10s | KE 392.9812 | drift +45.03% | fluid 72.5139 | solid 320.4673
  Impulse FP iterations last/mean/max 7/6.67/7
Step   900/2000   45.0% | t 45.000 | ETA 1m 41s | step 0.10s | KE 415.8019 | drift +53.46% | fluid 72.5101 | solid 343.2918
  Impulse FP iterations last/mean/max 7/6.71/7
Step  1000/2000   50.0% | t 50.000 | ETA 1m 32s | step 0.09s | KE 440.2935 | drift +62.49% | fluid 72.5151 | solid 367.7784
  Impulse FP iterations last/mean/max 7/6.74/7
Step  1100/2000   55.0% | t 55.000 | ETA 1m 24s | step 0.10s | KE 466.4596 | drift +72.15% | fluid 72.5114 | solid 393.9483
  Impulse FP iterations last/mean/max 7/6.76/7
Step  1200/2000   60.0% | t 60.000 | ETA 1m 15s | step 0.09s | KE 494.2995 | drift +82.43% | fluid 72.5094 | solid 421.7901
  Impulse FP iterations last/mean/max 7/6.78/7
Step  1300/2000   65.0% | t 65.000 | ETA 1m 5s | step 0.10s | KE 523.8072 | drift +93.32% | fluid 72.5110 | solid 451.2962
  Impulse FP iterations last/mean/max 7/6.80/7
Step  1400/2000   70.0% | t 70.000 | ETA 56s | step 0.09s | KE 554.9881 | drift +104.82% | fluid 72.5111 | solid 482.4770
  Impulse FP iterations last/mean/max 7/6.81/7
Step  1500/2000   75.0% | t 75.000 | ETA 47s | step 0.09s | KE 587.8427 | drift +116.95% | fluid 72.5073 | solid 515.3354
  Impulse FP iterations last/mean/max 7/6.82/7
Step  1600/2000   80.0% | t 80.000 | ETA 37s | step 0.09s | KE 622.3642 | drift +129.69% | fluid 72.5086 | solid 549.8556
  Impulse FP iterations last/mean/max 7/6.83/7
Step  1700/2000   85.0% | t 85.000 | ETA 28s | step 0.08s | KE 658.5544 | drift +143.05% | fluid 72.5153 | solid 586.0390
  Impulse FP iterations last/mean/max 7/6.84/7
Step  1800/2000   90.0% | t 90.000 | ETA 18s | step 0.07s | KE 696.4182 | drift +157.02% | fluid 72.5154 | solid 623.9027
  Impulse FP iterations last/mean/max 7/6.85/7
Step  1900/2000   95.0% | t 95.000 | ETA 9s | step 0.06s | KE 735.9546 | drift +171.61% | fluid 72.5117 | solid 663.4429
  Impulse FP iterations last/mean/max 7/6.86/7
Solver finished successfully - good job!
Results saved successfully.

================== Run summary ==================
  Bodies:            2
  Triangles / nodes: 256 / 516
  Timesteps:         2000  (dt = 0.05)
  Simulated time:    0 -> 100
  First-step setup:  0.283 s
  Mean time/step:    0.0900 s  (excl. first step)
  Total wall time:   3m 0s
  Impulse FP iters last/mean/max: 7 / 6.868 / 7
  Approx impulse solves/step:     6.869
  Impulse start cache hits/direct: 1999 / 1
  Impulse global drift P/H:       5.358323e-9 / 4.144229e-2
  Impulse per-body max drift P/H: 9.750470e-9 / 3.774336e-3
  CPU cores:         256 available, 8 Rayon worker thread(s)
  Started:           2026-06-24 02:37:14
  Finished:          2026-06-24 02:40:14
  Output file:       /work/e643/e643/shared/multi_ellip/studies/departing_sphericity_sweep/runs/triaxial/heterogeneous_sphere/triaxial_heterogeneous_sphere_eps0p0003_rho1_E0p5_sep8_run02_impulse_noproj/multiple_body_complete.dat
================================================
