
================ Simulation setup ================
  Run label:         /work/e643/e643/shared/multi_ellip/studies/departing_sphericity_sweep/runs/spheroid_oblate/homogeneous/spheroid_oblate_homogeneous_eps0p003_rho1_E0p5_sep8_run05_impulse_noproj/
  Started:           2026-06-24 02:26:25
  Input file:        /work/e643/e643/shared/multi_ellip/studies/departing_sphericity_sweep/runs/spheroid_oblate/homogeneous/spheroid_oblate_homogeneous_eps0p003_rho1_E0p5_sep8_run05_impulse_noproj/input.txt
  Output file:       /work/e643/e643/shared/multi_ellip/studies/departing_sphericity_sweep/runs/spheroid_oblate/homogeneous/spheroid_oblate_homogeneous_eps0p003_rho1_E0p5_sep8_run05_impulse_noproj/multiple_body_complete.dat
  Bodies:            2
  Fluid density:     1
  Mesh:              ndiv 2 -> 256 triangles / 516 nodes
  Simulated time:    0 -> 100  (dt = 0.05, ~2000 steps)
  Output cadence:    every 1 step(s)
  Output rows:       ~2001
  Progress cadence:  every 100 step(s)
  CPU cores:         256 available, 8 Rayon worker thread(s)
  Strong coupling:   disabled
  Impulse scheme:    enabled
  Hamiltonian step:  disabled
  Hamiltonian midpt: disabled
  Variational step:  disabled
  Energy projection: disabled
  Projection particular metric: Euclidean
  Fluid KE gradient: disabled  (eps = 0.001, scale = 1, linear = 1, angular = 1)
  Fluid KE discrete gradient: disabled
  Impulse pair metric correction: disabled  (mode = pair discrete-gradient, cutoff = all pairs, inner/outer = 0/0, eps = 0.001, linear scale = 1, angular scale = 0)
  Impulse metric correction: disabled  (internal load constraint = disabled)
  Impulse variational defect probe: disabled
  Impulse quadratic pressure: disabled  (scale = 1)
  Added-mass stab:   disabled
  Exact BEM geometry: disabled
  Exact singular BEM: disabled
  Legacy singular SLP diagnostic: disabled
  Phi-dot blend:     0 (off)

  Solver guidance:
    - Strong coupling: use for stiff close-coupled runs; slower but more implicit.
    - Impulse scheme: use when impulse/momentum conservation or KE drift is the focus. Recommended.
    - Added-mass stab: use for higher mesh counts (ndiv > 3) to preserve stability - deprecated.
================================================
Solver starting - good luck!

Initial state:
  Body  1
    density:          1.000000
    shape axes ratio: (1.000000, 1.000000, 0.991054)
    initial KE ratio: 0.500000
    position:         (-4.000000, 0.000000, 0.000000)
    velocity:         (-1.287515, -1.225108, 5.329951)
    angular velocity: (4.889779, -2.183487, -3.286467)
    orientation:      (w=0.316504, i=0.443817, j=0.155331, k=-0.823847)
  Body  2
    density:          1.000000
    shape axes ratio: (1.000000, 1.000000, 0.991054)
    initial KE ratio: 0.500000
    position:         (4.000000, 0.000000, 0.000000)
    velocity:         (-1.287259, -1.224864, 5.328889)
    angular velocity: (-0.645086, -5.478670, 3.007733)
    orientation:      (w=0.392940, i=-0.457506, j=0.628939, k=-0.490635)

Preparing first step: implicit scheme, no bootstrap passes required.
First step may take longer than later steps.

First step completed in 0.237 s.

Step   100/2000    5.0% | t 5.000 | ETA 3m 13s | step 0.09s | KE 276.8013 | drift +2.20% | fluid 72.5017 | solid 204.2995
  Impulse FP iterations last/mean/max 7/7.74/8
Step   200/2000   10.0% | t 10.000 | ETA 3m 4s | step 0.10s | KE 283.4102 | drift +4.64% | fluid 72.4846 | solid 210.9256
  Impulse FP iterations last/mean/max 8/7.76/8
Step   300/2000   15.0% | t 15.000 | ETA 2m 55s | step 0.11s | KE 290.6283 | drift +7.31% | fluid 72.6634 | solid 217.9648
  Impulse FP iterations last/mean/max 8/7.75/8
Step   400/2000   20.0% | t 20.000 | ETA 2m 45s | step 0.11s | KE 298.4487 | drift +10.19% | fluid 72.4866 | solid 225.9622
  Impulse FP iterations last/mean/max 8/7.73/8
Step   500/2000   25.0% | t 25.000 | ETA 2m 34s | step 0.11s | KE 306.7877 | drift +13.27% | fluid 72.5700 | solid 234.2176
  Impulse FP iterations last/mean/max 8/7.71/8
Step   600/2000   30.0% | t 30.000 | ETA 2m 24s | step 0.09s | KE 315.6847 | drift +16.56% | fluid 72.5457 | solid 243.1390
  Impulse FP iterations last/mean/max 7/7.70/8
Step   700/2000   35.0% | t 35.000 | ETA 2m 13s | step 0.10s | KE 325.0958 | drift +20.03% | fluid 72.5447 | solid 252.5511
  Impulse FP iterations last/mean/max 8/7.69/8
Step   800/2000   40.0% | t 40.000 | ETA 2m 3s | step 0.11s | KE 334.9827 | drift +23.68% | fluid 72.6599 | solid 262.3228
  Impulse FP iterations last/mean/max 8/7.68/8
Step   900/2000   45.0% | t 45.000 | ETA 1m 52s | step 0.11s | KE 345.3996 | drift +27.53% | fluid 72.6185 | solid 272.7811
  Impulse FP iterations last/mean/max 8/7.67/8
Step  1000/2000   50.0% | t 50.000 | ETA 1m 41s | step 0.09s | KE 356.3264 | drift +31.56% | fluid 72.4480 | solid 283.8784
  Impulse FP iterations last/mean/max 7/7.66/8
Step  1100/2000   55.0% | t 55.000 | ETA 1m 31s | step 0.09s | KE 367.6365 | drift +35.74% | fluid 72.7321 | solid 294.9044
  Impulse FP iterations last/mean/max 7/7.64/8
Step  1200/2000   60.0% | t 60.000 | ETA 1m 21s | step 0.10s | KE 379.4822 | drift +40.11% | fluid 72.7229 | solid 306.7594
  Impulse FP iterations last/mean/max 7/7.63/8
Step  1300/2000   65.0% | t 65.000 | ETA 1m 10s | step 0.09s | KE 391.8668 | drift +44.68% | fluid 72.4444 | solid 319.4225
  Impulse FP iterations last/mean/max 7/7.62/8
Step  1400/2000   70.0% | t 70.000 | ETA 1m 0s | step 0.10s | KE 404.5944 | drift +49.38% | fluid 72.5569 | solid 332.0375
  Impulse FP iterations last/mean/max 8/7.61/8
Step  1500/2000   75.0% | t 75.000 | ETA 50s | step 0.10s | KE 417.7499 | drift +54.24% | fluid 72.6519 | solid 345.0980
  Impulse FP iterations last/mean/max 8/7.60/8
Step  1600/2000   80.0% | t 80.000 | ETA 40s | step 0.09s | KE 431.4217 | drift +59.29% | fluid 72.4749 | solid 358.9468
  Impulse FP iterations last/mean/max 7/7.59/8
Step  1700/2000   85.0% | t 85.000 | ETA 30s | step 0.11s | KE 445.3564 | drift +64.43% | fluid 72.6941 | solid 372.6622
  Impulse FP iterations last/mean/max 8/7.58/8
Step  1800/2000   90.0% | t 90.000 | ETA 20s | step 0.09s | KE 459.8010 | drift +69.77% | fluid 72.5886 | solid 387.2125
  Impulse FP iterations last/mean/max 7/7.57/8
Step  1900/2000   95.0% | t 95.000 | ETA 10s | step 0.09s | KE 474.5979 | drift +75.23% | fluid 72.4822 | solid 402.1157
  Impulse FP iterations last/mean/max 7/7.56/8
Solver finished successfully - good job!
Results saved successfully.

================== Run summary ==================
  Bodies:            2
  Triangles / nodes: 256 / 516
  Timesteps:         2000  (dt = 0.05)
  Simulated time:    0 -> 100
  First-step setup:  0.237 s
  Mean time/step:    0.1004 s  (excl. first step)
  Total wall time:   3m 21s
  Impulse FP iters last/mean/max: 7 / 7.551 / 8
  Approx impulse solves/step:     7.551
  Impulse start cache hits/direct: 1999 / 1
  Impulse global drift P/H:       3.855208e-8 / 9.674699e-3
  Impulse per-body max drift P/H: 4.285914e-8 / 2.141612e-3
  CPU cores:         256 available, 8 Rayon worker thread(s)
  Started:           2026-06-24 02:26:25
  Finished:          2026-06-24 02:29:46
  Output file:       /work/e643/e643/shared/multi_ellip/studies/departing_sphericity_sweep/runs/spheroid_oblate/homogeneous/spheroid_oblate_homogeneous_eps0p003_rho1_E0p5_sep8_run05_impulse_noproj/multiple_body_complete.dat
================================================
