
================ Simulation setup ================
  Run label:         /work/e643/e643/shared/multi_ellip/studies/departing_sphericity_sweep/runs/spheroid_prolate/homogeneous/spheroid_prolate_homogeneous_eps1_rho1_E0p5_sep8_run03_impulse_noproj/
  Started:           2026-06-24 02:30:38
  Input file:        /work/e643/e643/shared/multi_ellip/studies/departing_sphericity_sweep/runs/spheroid_prolate/homogeneous/spheroid_prolate_homogeneous_eps1_rho1_E0p5_sep8_run03_impulse_noproj/input.txt
  Output file:       /work/e643/e643/shared/multi_ellip/studies/departing_sphericity_sweep/runs/spheroid_prolate/homogeneous/spheroid_prolate_homogeneous_eps1_rho1_E0p5_sep8_run03_impulse_noproj/multiple_body_complete.dat
  Bodies:            2
  Fluid density:     1
  Mesh:              ndiv 2 -> 256 triangles / 516 nodes
  Simulated time:    0 -> 100  (dt = 0.05, ~2000 steps)
  Output cadence:    every 1 step(s)
  Output rows:       ~2001
  Progress cadence:  every 100 step(s)
  CPU cores:         256 available, 8 Rayon worker thread(s)
  Strong coupling:   disabled
  Impulse scheme:    enabled
  Hamiltonian step:  disabled
  Hamiltonian midpt: disabled
  Variational step:  disabled
  Energy projection: disabled
  Projection particular metric: Euclidean
  Fluid KE gradient: disabled  (eps = 0.001, scale = 1, linear = 1, angular = 1)
  Fluid KE discrete gradient: disabled
  Impulse pair metric correction: disabled  (mode = pair discrete-gradient, cutoff = all pairs, inner/outer = 0/0, eps = 0.001, linear scale = 1, angular scale = 0)
  Impulse metric correction: disabled  (internal load constraint = disabled)
  Impulse variational defect probe: disabled
  Impulse quadratic pressure: disabled  (scale = 1)
  Added-mass stab:   disabled
  Exact BEM geometry: disabled
  Exact singular BEM: disabled
  Legacy singular SLP diagnostic: disabled
  Phi-dot blend:     0 (off)

  Solver guidance:
    - Strong coupling: use for stiff close-coupled runs; slower but more implicit.
    - Impulse scheme: use when impulse/momentum conservation or KE drift is the focus. Recommended.
    - Added-mass stab: use for higher mesh counts (ndiv > 3) to preserve stability - deprecated.
================================================
Solver starting - good luck!

Initial state:
  Body  1
    density:          1.000000
    shape axes ratio: (1.000000, 0.125000, 0.125000)
    initial KE ratio: 0.500000
    position:         (-4.000000, 0.000000, 0.000000)
    velocity:         (-11.993987, -7.882063, -5.864287)
    angular velocity: (-1.605409, -3.059466, 5.247928)
    orientation:      (w=-0.512098, i=0.351844, j=-0.277630, k=0.732723)
  Body  2
    density:          1.000000
    shape axes ratio: (1.000000, 0.125000, 0.125000)
    initial KE ratio: 0.500000
    position:         (4.000000, 0.000000, 0.000000)
    velocity:         (-12.337679, -8.107926, -6.032331)
    angular velocity: (-0.599457, -6.051557, -1.580421)
    orientation:      (w=0.711809, i=0.531311, j=-0.431537, k=-0.157517)

Preparing first step: implicit scheme, no bootstrap passes required.
First step may take longer than later steps.

First step completed in 0.430 s.

Step   100/2000    5.0% | t 5.000 | ETA 6m 27s | step 0.21s | KE 2561.1316 | drift +0.11% | fluid 1109.8564 | solid 1451.2752
  Impulse FP iterations last/mean/max 14/13.84/15
Step   200/2000   10.0% | t 10.000 | ETA 6m 7s | step 0.20s | KE 2556.6445 | drift -0.07% | fluid 1029.2968 | solid 1527.3477
  Impulse FP iterations last/mean/max 14/13.89/15
Step   300/2000   15.0% | t 15.000 | ETA 5m 46s | step 0.18s | KE 2553.1220 | drift -0.20% | fluid 1249.3059 | solid 1303.8160
  Impulse FP iterations last/mean/max 13/13.92/15
Step   400/2000   20.0% | t 20.000 | ETA 5m 25s | step 0.21s | KE 2562.2851 | drift +0.15% | fluid 1035.6332 | solid 1526.6519
  Impulse FP iterations last/mean/max 14/13.93/16
Step   500/2000   25.0% | t 25.000 | ETA 5m 4s | step 0.20s | KE 2554.6720 | drift -0.14% | fluid 1221.2127 | solid 1333.4593
  Impulse FP iterations last/mean/max 14/13.92/16
Step   600/2000   30.0% | t 30.000 | ETA 4m 44s | step 0.21s | KE 2558.2404 | drift -0.00% | fluid 1053.9750 | solid 1504.2654
  Impulse FP iterations last/mean/max 14/13.93/16
Step   700/2000   35.0% | t 35.000 | ETA 4m 23s | step 0.20s | KE 2563.3679 | drift +0.20% | fluid 1081.2296 | solid 1482.1383
  Impulse FP iterations last/mean/max 14/13.92/16
Step   800/2000   40.0% | t 40.000 | ETA 4m 3s | step 0.20s | KE 2556.5816 | drift -0.07% | fluid 1220.1420 | solid 1336.4396
  Impulse FP iterations last/mean/max 13/13.91/16
Step   900/2000   45.0% | t 45.000 | ETA 3m 42s | step 0.20s | KE 2554.0467 | drift -0.17% | fluid 1031.9049 | solid 1522.1417
  Impulse FP iterations last/mean/max 14/13.91/16
Step  1000/2000   50.0% | t 50.000 | ETA 3m 22s | step 0.20s | KE 2554.6454 | drift -0.15% | fluid 1247.2500 | solid 1307.3954
  Impulse FP iterations last/mean/max 14/13.90/16
Step  1100/2000   55.0% | t 55.000 | ETA 3m 1s | step 0.20s | KE 2564.3293 | drift +0.23% | fluid 1018.2791 | solid 1546.0502
  Impulse FP iterations last/mean/max 14/13.89/16
Step  1200/2000   60.0% | t 60.000 | ETA 2m 39s | step 0.20s | KE 2555.6636 | drift -0.11% | fluid 1129.5985 | solid 1426.0652
  Impulse FP iterations last/mean/max 14/13.89/16
Step  1300/2000   65.0% | t 65.000 | ETA 2m 18s | step 0.16s | KE 2553.5619 | drift -0.19% | fluid 1170.0979 | solid 1383.4639
  Impulse FP iterations last/mean/max 13/13.88/16
Step  1400/2000   70.0% | t 70.000 | ETA 1m 57s | step 0.15s | KE 2561.7223 | drift +0.13% | fluid 1058.4349 | solid 1503.2874
  Impulse FP iterations last/mean/max 14/13.88/16
Step  1500/2000   75.0% | t 75.000 | ETA 1m 36s | step 0.14s | KE 2555.6900 | drift -0.10% | fluid 1247.3945 | solid 1308.2956
  Impulse FP iterations last/mean/max 13/13.87/16
Step  1600/2000   80.0% | t 80.000 | ETA 1m 16s | step 0.15s | KE 2558.6806 | drift +0.01% | fluid 987.2251 | solid 1571.4555
  Impulse FP iterations last/mean/max 14/13.88/16
Step  1700/2000   85.0% | t 85.000 | ETA 56s | step 0.14s | KE 2559.2322 | drift +0.03% | fluid 1186.2475 | solid 1372.9847
  Impulse FP iterations last/mean/max 14/13.89/16
Step  1800/2000   90.0% | t 90.000 | ETA 36s | step 0.13s | KE 2559.9563 | drift +0.06% | fluid 1124.9266 | solid 1435.0298
  Impulse FP iterations last/mean/max 14/13.89/16
Step  1900/2000   95.0% | t 95.000 | ETA 18s | step 0.13s | KE 2553.8836 | drift -0.17% | fluid 1088.5572 | solid 1465.3264
  Impulse FP iterations last/mean/max 14/13.89/16
Solver finished successfully - good job!
Results saved successfully.

================== Run summary ==================
  Bodies:            2
  Triangles / nodes: 256 / 516
  Timesteps:         2000  (dt = 0.05)
  Simulated time:    0 -> 100
  First-step setup:  0.430 s
  Mean time/step:    0.1788 s  (excl. first step)
  Total wall time:   5m 57s
  Impulse FP iters last/mean/max: 13 / 13.893 / 16
  Approx impulse solves/step:     13.894
  Impulse start cache hits/direct: 1999 / 1
  Impulse global drift P/H:       3.390695e-9 / 3.303168e-3
  Impulse per-body max drift P/H: 6.278636e-9 / 2.174505e-3
  CPU cores:         256 available, 8 Rayon worker thread(s)
  Started:           2026-06-24 02:30:38
  Finished:          2026-06-24 02:36:36
  Output file:       /work/e643/e643/shared/multi_ellip/studies/departing_sphericity_sweep/runs/spheroid_prolate/homogeneous/spheroid_prolate_homogeneous_eps1_rho1_E0p5_sep8_run03_impulse_noproj/multiple_body_complete.dat
================================================
