
================ Simulation setup ================
  Run label:         /work/e643/e643/shared/multi_ellip/studies/departing_sphericity_sweep/runs/triaxial/homogeneous/triaxial_homogeneous_eps0p03_rho1_E0p5_sep8_run03_impulse_noproj/
  Started:           2026-06-24 02:26:27
  Input file:        /work/e643/e643/shared/multi_ellip/studies/departing_sphericity_sweep/runs/triaxial/homogeneous/triaxial_homogeneous_eps0p03_rho1_E0p5_sep8_run03_impulse_noproj/input.txt
  Output file:       /work/e643/e643/shared/multi_ellip/studies/departing_sphericity_sweep/runs/triaxial/homogeneous/triaxial_homogeneous_eps0p03_rho1_E0p5_sep8_run03_impulse_noproj/multiple_body_complete.dat
  Bodies:            2
  Fluid density:     1
  Mesh:              ndiv 2 -> 256 triangles / 516 nodes
  Simulated time:    0 -> 100  (dt = 0.05, ~2000 steps)
  Output cadence:    every 1 step(s)
  Output rows:       ~2001
  Progress cadence:  every 100 step(s)
  CPU cores:         256 available, 8 Rayon worker thread(s)
  Strong coupling:   disabled
  Impulse scheme:    enabled
  Hamiltonian step:  disabled
  Hamiltonian midpt: disabled
  Variational step:  disabled
  Energy projection: disabled
  Projection particular metric: Euclidean
  Fluid KE gradient: disabled  (eps = 0.001, scale = 1, linear = 1, angular = 1)
  Fluid KE discrete gradient: disabled
  Impulse pair metric correction: disabled  (mode = pair discrete-gradient, cutoff = all pairs, inner/outer = 0/0, eps = 0.001, linear scale = 1, angular scale = 0)
  Impulse metric correction: disabled  (internal load constraint = disabled)
  Impulse variational defect probe: disabled
  Impulse quadratic pressure: disabled  (scale = 1)
  Added-mass stab:   disabled
  Exact BEM geometry: disabled
  Exact singular BEM: disabled
  Legacy singular SLP diagnostic: disabled
  Phi-dot blend:     0 (off)

  Solver guidance:
    - Strong coupling: use for stiff close-coupled runs; slower but more implicit.
    - Impulse scheme: use when impulse/momentum conservation or KE drift is the focus. Recommended.
    - Added-mass stab: use for higher mesh counts (ndiv > 3) to preserve stability - deprecated.
================================================
Solver starting - good luck!

Initial state:
  Body  1
    density:          1.000000
    shape axes ratio: (1.000000, 0.970874, 0.942596)
    initial KE ratio: 0.500000
    position:         (-4.000000, 0.000000, 0.000000)
    velocity:         (-1.016472, -5.066376, -2.086332)
    angular velocity: (5.561197, -1.079398, 2.717794)
    orientation:      (w=-0.326807, i=0.794752, j=-0.483035, k=0.168060)
  Body  2
    density:          1.000000
    shape axes ratio: (1.000000, 0.970874, 0.942596)
    initial KE ratio: 0.500000
    position:         (4.000000, 0.000000, 0.000000)
    velocity:         (-1.025385, -5.110802, -2.104626)
    angular velocity: (-2.781828, 5.013161, -2.570616)
    orientation:      (w=0.138465, i=0.920267, j=0.333300, k=-0.151152)

Preparing first step: implicit scheme, no bootstrap passes required.
First step may take longer than later steps.

First step completed in 0.325 s.

Step   100/2000    5.0% | t 5.000 | ETA 3m 31s | step 0.12s | KE 269.4848 | drift +0.25% | fluid 71.6720 | solid 197.8128
  Impulse FP iterations last/mean/max 8/8.00/8
Step   200/2000   10.0% | t 10.000 | ETA 3m 23s | step 0.11s | KE 269.8325 | drift +0.38% | fluid 71.5044 | solid 198.3281
  Impulse FP iterations last/mean/max 8/8.00/8
Step   300/2000   15.0% | t 15.000 | ETA 3m 13s | step 0.12s | KE 269.5828 | drift +0.29% | fluid 71.8571 | solid 197.7257
  Impulse FP iterations last/mean/max 8/8.00/8
Step   400/2000   20.0% | t 20.000 | ETA 3m 2s | step 0.12s | KE 268.8365 | drift +0.01% | fluid 72.1346 | solid 196.7019
  Impulse FP iterations last/mean/max 8/8.00/8
Step   500/2000   25.0% | t 25.000 | ETA 2m 51s | step 0.11s | KE 267.8802 | drift -0.35% | fluid 72.1407 | solid 195.7395
  Impulse FP iterations last/mean/max 8/8.00/8
Step   600/2000   30.0% | t 30.000 | ETA 2m 39s | step 0.11s | KE 266.9419 | drift -0.70% | fluid 72.1973 | solid 194.7446
  Impulse FP iterations last/mean/max 8/7.99/8
Step   700/2000   35.0% | t 35.000 | ETA 2m 28s | step 0.10s | KE 266.3135 | drift -0.93% | fluid 71.1947 | solid 195.1187
  Impulse FP iterations last/mean/max 7/7.97/8
Step   800/2000   40.0% | t 40.000 | ETA 2m 16s | step 0.11s | KE 265.7700 | drift -1.13% | fluid 72.2252 | solid 193.5447
  Impulse FP iterations last/mean/max 8/7.96/8
Step   900/2000   45.0% | t 45.000 | ETA 2m 4s | step 0.12s | KE 265.5834 | drift -1.20% | fluid 71.9086 | solid 193.6748
  Impulse FP iterations last/mean/max 8/7.95/8
Step  1000/2000   50.0% | t 50.000 | ETA 1m 53s | step 0.11s | KE 265.5797 | drift -1.20% | fluid 71.7401 | solid 193.8395
  Impulse FP iterations last/mean/max 8/7.93/8
Step  1100/2000   55.0% | t 55.000 | ETA 1m 42s | step 0.11s | KE 265.5999 | drift -1.19% | fluid 71.3889 | solid 194.2109
  Impulse FP iterations last/mean/max 8/7.94/8
Step  1200/2000   60.0% | t 60.000 | ETA 1m 30s | step 0.12s | KE 265.7037 | drift -1.16% | fluid 71.6843 | solid 194.0194
  Impulse FP iterations last/mean/max 8/7.94/8
Step  1300/2000   65.0% | t 65.000 | ETA 1m 19s | step 0.11s | KE 265.8041 | drift -1.12% | fluid 71.6662 | solid 194.1379
  Impulse FP iterations last/mean/max 7/7.94/8
Step  1400/2000   70.0% | t 70.000 | ETA 1m 8s | step 0.12s | KE 265.9578 | drift -1.06% | fluid 70.9142 | solid 195.0436
  Impulse FP iterations last/mean/max 8/7.93/8
Step  1500/2000   75.0% | t 75.000 | ETA 56s | step 0.11s | KE 266.0421 | drift -1.03% | fluid 71.1237 | solid 194.9184
  Impulse FP iterations last/mean/max 8/7.93/8
Step  1600/2000   80.0% | t 80.000 | ETA 45s | step 0.11s | KE 266.0936 | drift -1.01% | fluid 71.2696 | solid 194.8240
  Impulse FP iterations last/mean/max 8/7.92/8
Step  1700/2000   85.0% | t 85.000 | ETA 33s | step 0.10s | KE 266.0983 | drift -1.01% | fluid 71.6413 | solid 194.4570
  Impulse FP iterations last/mean/max 8/7.92/8
Step  1800/2000   90.0% | t 90.000 | ETA 22s | step 0.10s | KE 266.0327 | drift -1.03% | fluid 72.1334 | solid 193.8993
  Impulse FP iterations last/mean/max 8/7.93/8
Step  1900/2000   95.0% | t 95.000 | ETA 11s | step 0.08s | KE 266.0295 | drift -1.03% | fluid 72.2341 | solid 193.7954
  Impulse FP iterations last/mean/max 8/7.93/8
Solver finished successfully - good job!
Results saved successfully.

================== Run summary ==================
  Bodies:            2
  Triangles / nodes: 256 / 516
  Timesteps:         2000  (dt = 0.05)
  Simulated time:    0 -> 100
  First-step setup:  0.325 s
  Mean time/step:    0.1099 s  (excl. first step)
  Total wall time:   3m 39s
  Impulse FP iters last/mean/max: 8 / 7.925 / 8
  Approx impulse solves/step:     7.925
  Impulse start cache hits/direct: 1999 / 1
  Impulse global drift P/H:       1.203322e-8 / 6.852216e-3
  Impulse per-body max drift P/H: 3.454731e-8 / 4.013287e-4
  CPU cores:         256 available, 8 Rayon worker thread(s)
  Started:           2026-06-24 02:26:27
  Finished:          2026-06-24 02:30:07
  Output file:       /work/e643/e643/shared/multi_ellip/studies/departing_sphericity_sweep/runs/triaxial/homogeneous/triaxial_homogeneous_eps0p03_rho1_E0p5_sep8_run03_impulse_noproj/multiple_body_complete.dat
================================================
