
================ Simulation setup ================
  Run label:         /work/e643/e643/shared/multi_ellip/studies/departing_sphericity_sweep/runs/triaxial/homogeneous/triaxial_homogeneous_eps1_rho1_E0p5_sep8_run09_impulse_noproj/
  Started:           2026-06-24 02:37:12
  Input file:        /work/e643/e643/shared/multi_ellip/studies/departing_sphericity_sweep/runs/triaxial/homogeneous/triaxial_homogeneous_eps1_rho1_E0p5_sep8_run09_impulse_noproj/input.txt
  Output file:       /work/e643/e643/shared/multi_ellip/studies/departing_sphericity_sweep/runs/triaxial/homogeneous/triaxial_homogeneous_eps1_rho1_E0p5_sep8_run09_impulse_noproj/multiple_body_complete.dat
  Bodies:            2
  Fluid density:     1
  Mesh:              ndiv 2 -> 256 triangles / 516 nodes
  Simulated time:    0 -> 100  (dt = 0.05, ~2000 steps)
  Output cadence:    every 1 step(s)
  Output rows:       ~2001
  Progress cadence:  every 100 step(s)
  CPU cores:         256 available, 8 Rayon worker thread(s)
  Strong coupling:   disabled
  Impulse scheme:    enabled
  Hamiltonian step:  disabled
  Hamiltonian midpt: disabled
  Variational step:  disabled
  Energy projection: disabled
  Projection particular metric: Euclidean
  Fluid KE gradient: disabled  (eps = 0.001, scale = 1, linear = 1, angular = 1)
  Fluid KE discrete gradient: disabled
  Impulse pair metric correction: disabled  (mode = pair discrete-gradient, cutoff = all pairs, inner/outer = 0/0, eps = 0.001, linear scale = 1, angular scale = 0)
  Impulse metric correction: disabled  (internal load constraint = disabled)
  Impulse variational defect probe: disabled
  Impulse quadratic pressure: disabled  (scale = 1)
  Added-mass stab:   disabled
  Exact BEM geometry: disabled
  Exact singular BEM: disabled
  Legacy singular SLP diagnostic: disabled
  Phi-dot blend:     0 (off)

  Solver guidance:
    - Strong coupling: use for stiff close-coupled runs; slower but more implicit.
    - Impulse scheme: use when impulse/momentum conservation or KE drift is the focus. Recommended.
    - Added-mass stab: use for higher mesh counts (ndiv > 3) to preserve stability - deprecated.
================================================
Solver starting - good luck!

Initial state:
  Body  1
    density:          1.000000
    shape axes ratio: (1.000000, 0.500000, 0.250000)
    initial KE ratio: 0.500000
    position:         (-4.000000, 0.000000, 0.000000)
    velocity:         (-4.837006, -0.580023, -4.077710)
    angular velocity: (-4.987131, -2.072717, 3.211041)
    orientation:      (w=-0.232658, i=0.902348, j=0.051260, k=-0.359181)
  Body  2
    density:          1.000000
    shape axes ratio: (1.000000, 0.500000, 0.250000)
    initial KE ratio: 0.500000
    position:         (4.000000, 0.000000, 0.000000)
    velocity:         (-6.307148, -0.756314, -5.317075)
    angular velocity: (-0.947722, -5.473013, 2.937068)
    orientation:      (w=-0.087590, i=-0.756083, j=-0.391608, k=0.517020)

Preparing first step: implicit scheme, no bootstrap passes required.
First step may take longer than later steps.

First step completed in 0.311 s.

Step   100/2000    5.0% | t 5.000 | ETA 7m 25s | step 0.26s | KE 622.0360 | drift +0.05% | fluid 336.3982 | solid 285.6378
  Impulse FP iterations last/mean/max 17/16.14/19
Step   200/2000   10.0% | t 10.000 | ETA 7m 5s | step 0.26s | KE 621.0496 | drift -0.11% | fluid 331.3953 | solid 289.6542
  Impulse FP iterations last/mean/max 17/16.12/19
Step   300/2000   15.0% | t 15.000 | ETA 6m 43s | step 0.23s | KE 621.7266 | drift -0.00% | fluid 327.5508 | solid 294.1758
  Impulse FP iterations last/mean/max 16/16.14/19
Step   400/2000   20.0% | t 20.000 | ETA 6m 21s | step 0.25s | KE 620.9393 | drift -0.13% | fluid 324.3974 | solid 296.5419
  Impulse FP iterations last/mean/max 16/16.16/19
Step   500/2000   25.0% | t 25.000 | ETA 5m 56s | step 0.21s | KE 621.5770 | drift -0.03% | fluid 335.9364 | solid 285.6406
  Impulse FP iterations last/mean/max 15/16.15/19
Step   600/2000   30.0% | t 30.000 | ETA 5m 31s | step 0.25s | KE 620.7445 | drift -0.16% | fluid 339.6231 | solid 281.1214
  Impulse FP iterations last/mean/max 18/16.16/19
Step   700/2000   35.0% | t 35.000 | ETA 5m 3s | step 0.21s | KE 622.0725 | drift +0.05% | fluid 332.5668 | solid 289.5057
  Impulse FP iterations last/mean/max 17/16.16/19
Step   800/2000   40.0% | t 40.000 | ETA 4m 30s | step 0.15s | KE 621.2478 | drift -0.08% | fluid 324.8353 | solid 296.4125
  Impulse FP iterations last/mean/max 16/16.15/19
Step   900/2000   45.0% | t 45.000 | ETA 3m 58s | step 0.14s | KE 621.3880 | drift -0.06% | fluid 330.5645 | solid 290.8236
  Impulse FP iterations last/mean/max 15/16.14/19
Step  1000/2000   50.0% | t 50.000 | ETA 3m 29s | step 0.14s | KE 621.2048 | drift -0.09% | fluid 330.8495 | solid 290.3553
  Impulse FP iterations last/mean/max 15/16.14/19
Step  1100/2000   55.0% | t 55.000 | ETA 3m 3s | step 0.14s | KE 622.3212 | drift +0.09% | fluid 331.4080 | solid 290.9132
  Impulse FP iterations last/mean/max 16/16.14/19
Step  1200/2000   60.0% | t 60.000 | ETA 2m 38s | step 0.15s | KE 621.1963 | drift -0.09% | fluid 329.7846 | solid 291.4117
  Impulse FP iterations last/mean/max 17/16.14/19
Step  1300/2000   65.0% | t 65.000 | ETA 2m 16s | step 0.15s | KE 621.8321 | drift +0.01% | fluid 325.1537 | solid 296.6784
  Impulse FP iterations last/mean/max 16/16.13/19
Step  1400/2000   70.0% | t 70.000 | ETA 1m 54s | step 0.15s | KE 621.4299 | drift -0.05% | fluid 315.6434 | solid 305.7865
  Impulse FP iterations last/mean/max 16/16.14/19
Step  1500/2000   75.0% | t 75.000 | ETA 1m 34s | step 0.14s | KE 622.4324 | drift +0.11% | fluid 321.4074 | solid 301.0250
  Impulse FP iterations last/mean/max 15/16.14/19
Step  1600/2000   80.0% | t 80.000 | ETA 1m 14s | step 0.15s | KE 621.4749 | drift -0.04% | fluid 325.4951 | solid 295.9799
  Impulse FP iterations last/mean/max 17/16.14/19
Step  1700/2000   85.0% | t 85.000 | ETA 55s | step 0.14s | KE 622.7016 | drift +0.15% | fluid 322.5591 | solid 300.1425
  Impulse FP iterations last/mean/max 15/16.14/19
Step  1800/2000   90.0% | t 90.000 | ETA 36s | step 0.15s | KE 621.7236 | drift -0.00% | fluid 316.2057 | solid 305.5179
  Impulse FP iterations last/mean/max 16/16.14/19
Step  1900/2000   95.0% | t 95.000 | ETA 18s | step 0.15s | KE 621.9825 | drift +0.04% | fluid 319.1169 | solid 302.8656
  Impulse FP iterations last/mean/max 16/16.14/19
Solver finished successfully - good job!
Results saved successfully.

================== Run summary ==================
  Bodies:            2
  Triangles / nodes: 256 / 516
  Timesteps:         2000  (dt = 0.05)
  Simulated time:    0 -> 100
  First-step setup:  0.311 s
  Mean time/step:    0.1790 s  (excl. first step)
  Total wall time:   5m 58s
  Impulse FP iters last/mean/max: 14 / 16.143 / 19
  Approx impulse solves/step:     16.144
  Impulse start cache hits/direct: 1999 / 1
  Impulse global drift P/H:       1.149740e-8 / 2.029523e-3
  Impulse per-body max drift P/H: 1.179839e-8 / 1.199829e-3
  CPU cores:         256 available, 8 Rayon worker thread(s)
  Started:           2026-06-24 02:37:12
  Finished:          2026-06-24 02:43:11
  Output file:       /work/e643/e643/shared/multi_ellip/studies/departing_sphericity_sweep/runs/triaxial/homogeneous/triaxial_homogeneous_eps1_rho1_E0p5_sep8_run09_impulse_noproj/multiple_body_complete.dat
================================================
