
================ Simulation setup ================
  Run label:         /work/e643/e643/shared/multi_ellip/studies/departing_sphericity_sweep/runs/triaxial/heterogeneous_sphere/triaxial_heterogeneous_sphere_eps0p01_rho1_E0p5_sep8_run08_impulse_noproj/
  Started:           2026-06-24 02:43:22
  Input file:        /work/e643/e643/shared/multi_ellip/studies/departing_sphericity_sweep/runs/triaxial/heterogeneous_sphere/triaxial_heterogeneous_sphere_eps0p01_rho1_E0p5_sep8_run08_impulse_noproj/input.txt
  Output file:       /work/e643/e643/shared/multi_ellip/studies/departing_sphericity_sweep/runs/triaxial/heterogeneous_sphere/triaxial_heterogeneous_sphere_eps0p01_rho1_E0p5_sep8_run08_impulse_noproj/multiple_body_complete.dat
  Bodies:            2
  Fluid density:     1
  Mesh:              ndiv 2 -> 256 triangles / 516 nodes
  Simulated time:    0 -> 100  (dt = 0.05, ~2000 steps)
  Output cadence:    every 1 step(s)
  Output rows:       ~2001
  Progress cadence:  every 100 step(s)
  CPU cores:         256 available, 8 Rayon worker thread(s)
  Strong coupling:   disabled
  Impulse scheme:    enabled
  Hamiltonian step:  disabled
  Hamiltonian midpt: disabled
  Variational step:  disabled
  Energy projection: disabled
  Projection particular metric: Euclidean
  Fluid KE gradient: disabled  (eps = 0.001, scale = 1, linear = 1, angular = 1)
  Fluid KE discrete gradient: disabled
  Impulse pair metric correction: disabled  (mode = pair discrete-gradient, cutoff = all pairs, inner/outer = 0/0, eps = 0.001, linear scale = 1, angular scale = 0)
  Impulse metric correction: disabled  (internal load constraint = disabled)
  Impulse variational defect probe: disabled
  Impulse quadratic pressure: disabled  (scale = 1)
  Added-mass stab:   disabled
  Exact BEM geometry: disabled
  Exact singular BEM: disabled
  Legacy singular SLP diagnostic: disabled
  Phi-dot blend:     0 (off)

  Solver guidance:
    - Strong coupling: use for stiff close-coupled runs; slower but more implicit.
    - Impulse scheme: use when impulse/momentum conservation or KE drift is the focus. Recommended.
    - Added-mass stab: use for higher mesh counts (ndiv > 3) to preserve stability - deprecated.
================================================
Solver starting - good luck!

Initial state:
  Body  1
    density:          1.000000
    shape axes ratio: (1.000000, 0.990099, 0.980296)
    initial KE ratio: 0.500000
    position:         (-4.000000, 0.000000, 0.000000)
    velocity:         (-0.524272, -4.291239, 3.585891)
    angular velocity: (-3.477236, 4.497497, -2.675774)
    orientation:      (w=-0.277660, i=-0.849811, j=0.292804, k=-0.339104)
  Body  2
    density:          1.000000
    shape axes ratio: (1.000000, 1.000000, 1.000000)
    initial KE ratio: 0.500000
    position:         (4.000000, 0.000000, 0.000000)
    velocity:         (-0.524559, -4.293587, 3.587853)
    angular velocity: (5.912523, -1.816980, -1.104118)
    orientation:      (w=-0.353544, i=-0.261548, j=0.266163, k=0.857763)

Preparing first step: implicit scheme, no bootstrap passes required.
First step may take longer than later steps.

First step completed in 0.339 s.

Step   100/2000    5.0% | t 5.000 | ETA 3m 34s | step 0.10s | KE 270.6608 | drift +0.06% | fluid 72.2117 | solid 198.4491
  Impulse FP iterations last/mean/max 7/7.97/8
Step   200/2000   10.0% | t 10.000 | ETA 3m 22s | step 0.12s | KE 270.5722 | drift +0.03% | fluid 72.2343 | solid 198.3379
  Impulse FP iterations last/mean/max 8/7.93/8
Step   300/2000   15.0% | t 15.000 | ETA 3m 9s | step 0.12s | KE 270.3572 | drift -0.05% | fluid 72.4101 | solid 197.9471
  Impulse FP iterations last/mean/max 8/7.86/8
Step   400/2000   20.0% | t 20.000 | ETA 2m 58s | step 0.11s | KE 270.1811 | drift -0.11% | fluid 72.3575 | solid 197.8235
  Impulse FP iterations last/mean/max 8/7.84/8
Step   500/2000   25.0% | t 25.000 | ETA 2m 47s | step 0.10s | KE 270.1436 | drift -0.13% | fluid 72.1902 | solid 197.9534
  Impulse FP iterations last/mean/max 7/7.84/8
Step   600/2000   30.0% | t 30.000 | ETA 2m 36s | step 0.11s | KE 270.3041 | drift -0.07% | fluid 72.4327 | solid 197.8714
  Impulse FP iterations last/mean/max 8/7.86/8
Step   700/2000   35.0% | t 35.000 | ETA 2m 25s | step 0.12s | KE 270.6813 | drift +0.07% | fluid 72.2134 | solid 198.4679
  Impulse FP iterations last/mean/max 8/7.86/8
Step   800/2000   40.0% | t 40.000 | ETA 2m 13s | step 0.12s | KE 271.1906 | drift +0.26% | fluid 72.4152 | solid 198.7754
  Impulse FP iterations last/mean/max 8/7.86/8
Step   900/2000   45.0% | t 45.000 | ETA 2m 2s | step 0.11s | KE 271.7856 | drift +0.48% | fluid 72.2700 | solid 199.5156
  Impulse FP iterations last/mean/max 8/7.86/8
Step  1000/2000   50.0% | t 50.000 | ETA 1m 51s | step 0.11s | KE 272.3700 | drift +0.70% | fluid 72.2704 | solid 200.0996
  Impulse FP iterations last/mean/max 8/7.86/8
Step  1100/2000   55.0% | t 55.000 | ETA 1m 39s | step 0.10s | KE 272.8697 | drift +0.88% | fluid 72.4521 | solid 200.4176
  Impulse FP iterations last/mean/max 8/7.86/8
Step  1200/2000   60.0% | t 60.000 | ETA 1m 27s | step 0.08s | KE 273.2872 | drift +1.03% | fluid 72.1759 | solid 201.1113
  Impulse FP iterations last/mean/max 7/7.86/8
Step  1300/2000   65.0% | t 65.000 | ETA 1m 15s | step 0.10s | KE 273.5534 | drift +1.13% | fluid 72.4391 | solid 201.1143
  Impulse FP iterations last/mean/max 8/7.86/8
Step  1400/2000   70.0% | t 70.000 | ETA 1m 4s | step 0.10s | KE 273.7287 | drift +1.20% | fluid 72.3093 | solid 201.4194
  Impulse FP iterations last/mean/max 8/7.86/8
Step  1500/2000   75.0% | t 75.000 | ETA 53s | step 0.12s | KE 273.8041 | drift +1.23% | fluid 72.2001 | solid 201.6040
  Impulse FP iterations last/mean/max 8/7.86/8
Step  1600/2000   80.0% | t 80.000 | ETA 43s | step 0.12s | KE 273.8232 | drift +1.23% | fluid 72.3578 | solid 201.4653
  Impulse FP iterations last/mean/max 8/7.86/8
Step  1700/2000   85.0% | t 85.000 | ETA 32s | step 0.12s | KE 273.8127 | drift +1.23% | fluid 72.3348 | solid 201.4780
  Impulse FP iterations last/mean/max 8/7.86/8
Step  1800/2000   90.0% | t 90.000 | ETA 21s | step 0.10s | KE 273.8170 | drift +1.23% | fluid 72.2253 | solid 201.5916
  Impulse FP iterations last/mean/max 8/7.85/8
Step  1900/2000   95.0% | t 95.000 | ETA 10s | step 0.08s | KE 273.7999 | drift +1.22% | fluid 72.4828 | solid 201.3170
  Impulse FP iterations last/mean/max 8/7.86/8
Solver finished successfully - good job!
Results saved successfully.

================== Run summary ==================
  Bodies:            2
  Triangles / nodes: 256 / 516
  Timesteps:         2000  (dt = 0.05)
  Simulated time:    0 -> 100
  First-step setup:  0.339 s
  Mean time/step:    0.1054 s  (excl. first step)
  Total wall time:   3m 31s
  Impulse FP iters last/mean/max: 8 / 7.860 / 8
  Approx impulse solves/step:     7.861
  Impulse start cache hits/direct: 1999 / 1
  Impulse global drift P/H:       5.026076e-9 / 1.647818e-2
  Impulse per-body max drift P/H: 7.582345e-9 / 9.921149e-4
  CPU cores:         256 available, 8 Rayon worker thread(s)
  Started:           2026-06-24 02:43:22
  Finished:          2026-06-24 02:46:54
  Output file:       /work/e643/e643/shared/multi_ellip/studies/departing_sphericity_sweep/runs/triaxial/heterogeneous_sphere/triaxial_heterogeneous_sphere_eps0p01_rho1_E0p5_sep8_run08_impulse_noproj/multiple_body_complete.dat
================================================
