
================ Simulation setup ================
  Run label:         /work/e643/e643/shared/multi_ellip/studies/departing_sphericity_sweep/runs/spheroid_prolate/homogeneous/spheroid_prolate_homogeneous_eps0p3_rho1_E0p5_sep8_run06_impulse_noproj/
  Started:           2026-06-24 02:30:37
  Input file:        /work/e643/e643/shared/multi_ellip/studies/departing_sphericity_sweep/runs/spheroid_prolate/homogeneous/spheroid_prolate_homogeneous_eps0p3_rho1_E0p5_sep8_run06_impulse_noproj/input.txt
  Output file:       /work/e643/e643/shared/multi_ellip/studies/departing_sphericity_sweep/runs/spheroid_prolate/homogeneous/spheroid_prolate_homogeneous_eps0p3_rho1_E0p5_sep8_run06_impulse_noproj/multiple_body_complete.dat
  Bodies:            2
  Fluid density:     1
  Mesh:              ndiv 2 -> 256 triangles / 516 nodes
  Simulated time:    0 -> 100  (dt = 0.05, ~2000 steps)
  Output cadence:    every 1 step(s)
  Output rows:       ~2001
  Progress cadence:  every 100 step(s)
  CPU cores:         256 available, 8 Rayon worker thread(s)
  Strong coupling:   disabled
  Impulse scheme:    enabled
  Hamiltonian step:  disabled
  Hamiltonian midpt: disabled
  Variational step:  disabled
  Energy projection: disabled
  Projection particular metric: Euclidean
  Fluid KE gradient: disabled  (eps = 0.001, scale = 1, linear = 1, angular = 1)
  Fluid KE discrete gradient: disabled
  Impulse pair metric correction: disabled  (mode = pair discrete-gradient, cutoff = all pairs, inner/outer = 0/0, eps = 0.001, linear scale = 1, angular scale = 0)
  Impulse metric correction: disabled  (internal load constraint = disabled)
  Impulse variational defect probe: disabled
  Impulse quadratic pressure: disabled  (scale = 1)
  Added-mass stab:   disabled
  Exact BEM geometry: disabled
  Exact singular BEM: disabled
  Legacy singular SLP diagnostic: disabled
  Phi-dot blend:     0 (off)

  Solver guidance:
    - Strong coupling: use for stiff close-coupled runs; slower but more implicit.
    - Impulse scheme: use when impulse/momentum conservation or KE drift is the focus. Recommended.
    - Added-mass stab: use for higher mesh counts (ndiv > 3) to preserve stability - deprecated.
================================================
Solver starting - good luck!

Initial state:
  Body  1
    density:          1.000000
    shape axes ratio: (1.000000, 0.455166, 0.455166)
    initial KE ratio: 0.500000
    position:         (-4.000000, 0.000000, 0.000000)
    velocity:         (-3.357454, 6.459403, -0.998363)
    angular velocity: (0.706903, -3.630074, 5.079495)
    orientation:      (w=-0.232824, i=0.151713, j=-0.767414, k=-0.577799)
  Body  2
    density:          1.000000
    shape axes ratio: (1.000000, 0.455166, 0.455166)
    initial KE ratio: 0.500000
    position:         (4.000000, 0.000000, 0.000000)
    velocity:         (-2.977126, 5.727689, -0.885270)
    angular velocity: (-3.638704, -4.956155, 1.294133)
    orientation:      (w=-0.503039, i=-0.110575, j=-0.845755, k=0.139371)

Preparing first step: implicit scheme, no bootstrap passes required.
First step may take longer than later steps.

First step completed in 0.363 s.

Step   100/2000    5.0% | t 5.000 | ETA 5m 28s | step 0.18s | KE 475.9445 | drift +0.53% | fluid 174.7769 | solid 301.1675
  Impulse FP iterations last/mean/max 12/11.95/13
Step   200/2000   10.0% | t 10.000 | ETA 5m 13s | step 0.17s | KE 476.7587 | drift +0.70% | fluid 173.3206 | solid 303.4382
  Impulse FP iterations last/mean/max 12/11.98/13
Step   300/2000   15.0% | t 15.000 | ETA 4m 54s | step 0.18s | KE 475.6471 | drift +0.46% | fluid 153.7549 | solid 321.8922
  Impulse FP iterations last/mean/max 12/11.96/13
Step   400/2000   20.0% | t 20.000 | ETA 4m 37s | step 0.15s | KE 476.8740 | drift +0.72% | fluid 159.0306 | solid 317.8434
  Impulse FP iterations last/mean/max 11/11.96/13
Step   500/2000   25.0% | t 25.000 | ETA 4m 20s | step 0.18s | KE 475.2449 | drift +0.38% | fluid 153.3771 | solid 321.8678
  Impulse FP iterations last/mean/max 12/11.97/13
Step   600/2000   30.0% | t 30.000 | ETA 4m 2s | step 0.17s | KE 475.6915 | drift +0.47% | fluid 168.3463 | solid 307.3452
  Impulse FP iterations last/mean/max 12/11.98/13
Step   700/2000   35.0% | t 35.000 | ETA 3m 45s | step 0.18s | KE 475.5960 | drift +0.45% | fluid 166.3097 | solid 309.2863
  Impulse FP iterations last/mean/max 12/12.00/13
Step   800/2000   40.0% | t 40.000 | ETA 3m 27s | step 0.16s | KE 475.8386 | drift +0.50% | fluid 149.2185 | solid 326.6201
  Impulse FP iterations last/mean/max 11/11.99/13
Step   900/2000   45.0% | t 45.000 | ETA 3m 10s | step 0.17s | KE 477.1897 | drift +0.79% | fluid 146.1970 | solid 330.9927
  Impulse FP iterations last/mean/max 12/11.99/13
Step  1000/2000   50.0% | t 50.000 | ETA 2m 52s | step 0.15s | KE 476.2259 | drift +0.59% | fluid 129.5652 | solid 346.6607
  Impulse FP iterations last/mean/max 12/11.97/13
Step  1100/2000   55.0% | t 55.000 | ETA 2m 35s | step 0.16s | KE 477.2554 | drift +0.80% | fluid 143.8457 | solid 333.4097
  Impulse FP iterations last/mean/max 11/11.98/13
Step  1200/2000   60.0% | t 60.000 | ETA 2m 17s | step 0.18s | KE 476.0564 | drift +0.55% | fluid 143.6783 | solid 332.3781
  Impulse FP iterations last/mean/max 12/11.97/13
Step  1300/2000   65.0% | t 65.000 | ETA 2m 0s | step 0.17s | KE 476.0117 | drift +0.54% | fluid 153.1621 | solid 322.8496
  Impulse FP iterations last/mean/max 12/11.98/13
Step  1400/2000   70.0% | t 70.000 | ETA 1m 42s | step 0.14s | KE 476.4743 | drift +0.64% | fluid 151.6655 | solid 324.8088
  Impulse FP iterations last/mean/max 12/11.99/13
Step  1500/2000   75.0% | t 75.000 | ETA 1m 24s | step 0.17s | KE 476.2380 | drift +0.59% | fluid 134.3729 | solid 341.8650
  Impulse FP iterations last/mean/max 13/12.00/13
Step  1600/2000   80.0% | t 80.000 | ETA 1m 7s | step 0.15s | KE 477.4096 | drift +0.84% | fluid 141.3176 | solid 336.0921
  Impulse FP iterations last/mean/max 12/12.00/13
Step  1700/2000   85.0% | t 85.000 | ETA 49s | step 0.15s | KE 476.0113 | drift +0.54% | fluid 139.5001 | solid 336.5113
  Impulse FP iterations last/mean/max 13/12.00/13
Step  1800/2000   90.0% | t 90.000 | ETA 32s | step 0.12s | KE 476.1022 | drift +0.56% | fluid 162.0192 | solid 314.0829
  Impulse FP iterations last/mean/max 12/11.99/13
Step  1900/2000   95.0% | t 95.000 | ETA 16s | step 0.12s | KE 475.3538 | drift +0.40% | fluid 168.2035 | solid 307.1502
  Impulse FP iterations last/mean/max 12/11.98/13
Solver finished successfully - good job!
Results saved successfully.

================== Run summary ==================
  Bodies:            2
  Triangles / nodes: 256 / 516
  Timesteps:         2000  (dt = 0.05)
  Simulated time:    0 -> 100
  First-step setup:  0.363 s
  Mean time/step:    0.1601 s  (excl. first step)
  Total wall time:   5m 20s
  Impulse FP iters last/mean/max: 12 / 11.983 / 13
  Approx impulse solves/step:     11.984
  Impulse start cache hits/direct: 1999 / 1
  Impulse global drift P/H:       1.021398e-8 / 1.289992e-2
  Impulse per-body max drift P/H: 1.514150e-8 / 1.777718e-3
  CPU cores:         256 available, 8 Rayon worker thread(s)
  Started:           2026-06-24 02:30:37
  Finished:          2026-06-24 02:35:58
  Output file:       /work/e643/e643/shared/multi_ellip/studies/departing_sphericity_sweep/runs/spheroid_prolate/homogeneous/spheroid_prolate_homogeneous_eps0p3_rho1_E0p5_sep8_run06_impulse_noproj/multiple_body_complete.dat
================================================
