
================ Simulation setup ================
  Run label:         /work/e643/e643/shared/multi_ellip/studies/two_body_paper_sweeps/runs/ellipsoid_1_0p8_0p6/ellipsoid_1_0p8_0p6_rho0p3_E30_sep8_run02_impulse_noproj/
  Started:           2026-06-22 19:47:31
  Input file:        /work/e643/e643/shared/multi_ellip/studies/two_body_paper_sweeps/runs/ellipsoid_1_0p8_0p6/ellipsoid_1_0p8_0p6_rho0p3_E30_sep8_run02_impulse_noproj/input.txt
  Output file:       /work/e643/e643/shared/multi_ellip/studies/two_body_paper_sweeps/runs/ellipsoid_1_0p8_0p6/ellipsoid_1_0p8_0p6_rho0p3_E30_sep8_run02_impulse_noproj/multiple_body_complete.dat
  Bodies:            2
  Fluid density:     1
  Mesh:              ndiv 2 -> 256 triangles / 516 nodes
  Simulated time:    0 -> 100  (dt = 0.05, ~2000 steps)
  Output cadence:    every 1 step(s)
  Output rows:       ~2001
  Progress cadence:  every 100 step(s)
  CPU cores:         256 available, 8 Rayon worker thread(s)
  Strong coupling:   disabled
  Impulse scheme:    enabled
  Hamiltonian step:  disabled
  Hamiltonian midpt: disabled
  Variational step:  disabled
  Energy projection: disabled
  Projection particular metric: Euclidean
  Fluid KE gradient: disabled  (eps = 0.001, scale = 1, linear = 1, angular = 1)
  Fluid KE discrete gradient: disabled
  Impulse pair metric correction: disabled  (mode = pair discrete-gradient, cutoff = all pairs, inner/outer = 0/0, eps = 0.001, linear scale = 1, angular scale = 0)
  Impulse metric correction: disabled  (internal load constraint = disabled)
  Impulse variational defect probe: disabled
  Impulse quadratic pressure: disabled  (scale = 1)
  Added-mass stab:   disabled
  Exact BEM geometry: disabled
  Exact singular BEM: disabled
  Legacy singular SLP diagnostic: disabled
  Phi-dot blend:     0 (off)

  Solver guidance:
    - Strong coupling: use for stiff close-coupled runs; slower but more implicit.
    - Impulse scheme: use when impulse/momentum conservation or KE drift is the focus. Recommended.
    - Added-mass stab: use for higher mesh counts (ndiv > 3) to preserve stability - deprecated.
================================================
Solver starting - good luck!

Initial state:
  Body  1
    density:          0.300000
    shape axes ratio: (1.000000, 0.800000, 0.600000)
    initial KE ratio: 30.000000
    position:         (-4.000000, 0.000000, 0.000000)
    velocity:         (-0.350395, -0.481617, 0.384752)
    angular velocity: (5.099682, 2.582501, -2.608132)
    orientation:      (w=0.577350, i=0.577350, j=0.577350, k=0.000000)
  Body  2
    density:          0.300000
    shape axes ratio: (1.000000, 0.800000, 0.600000)
    initial KE ratio: 30.000000
    position:         (4.000000, 0.000000, 0.000000)
    velocity:         (-0.377507, -0.518882, 0.414521)
    angular velocity: (0.309982, 6.273235, -0.169874)
    orientation:      (w=0.577350, i=-0.577350, j=0.000000, k=0.577350)

Preparing first step: implicit scheme, no bootstrap passes required.
First step may take longer than later steps.

First step completed in 0.385 s.

Step   100/2000    5.0% | t 5.000 | ETA 6m 13s | step 0.20s | KE 26.0029 | drift -0.34% | fluid 6.2477 | solid 19.7552
  Impulse FP iterations last/mean/max 15/14.41/15
Step   200/2000   10.0% | t 10.000 | ETA 5m 50s | step 0.18s | KE 25.9313 | drift -0.61% | fluid 4.4256 | solid 21.5057
  Impulse FP iterations last/mean/max 14/14.26/15
Step   300/2000   15.0% | t 15.000 | ETA 5m 32s | step 0.21s | KE 25.8569 | drift -0.90% | fluid 5.9940 | solid 19.8629
  Impulse FP iterations last/mean/max 15/14.28/16
Step   400/2000   20.0% | t 20.000 | ETA 5m 12s | step 0.20s | KE 25.7855 | drift -1.17% | fluid 4.6275 | solid 21.1581
  Impulse FP iterations last/mean/max 14/14.24/16
Step   500/2000   25.0% | t 25.000 | ETA 4m 53s | step 0.20s | KE 25.7112 | drift -1.45% | fluid 4.5300 | solid 21.1812
  Impulse FP iterations last/mean/max 14/14.26/16
Step   600/2000   30.0% | t 30.000 | ETA 4m 34s | step 0.20s | KE 25.6415 | drift -1.72% | fluid 5.3452 | solid 20.2963
  Impulse FP iterations last/mean/max 14/14.30/16
Step   700/2000   35.0% | t 35.000 | ETA 4m 14s | step 0.19s | KE 25.5881 | drift -1.93% | fluid 3.8075 | solid 21.7806
  Impulse FP iterations last/mean/max 13/14.29/16
Step   800/2000   40.0% | t 40.000 | ETA 3m 55s | step 0.20s | KE 25.5316 | drift -2.14% | fluid 5.5962 | solid 19.9354
  Impulse FP iterations last/mean/max 14/14.31/16
Step   900/2000   45.0% | t 45.000 | ETA 3m 36s | step 0.18s | KE 25.4902 | drift -2.30% | fluid 3.7238 | solid 21.7664
  Impulse FP iterations last/mean/max 14/14.30/16
Step  1000/2000   50.0% | t 50.000 | ETA 3m 16s | step 0.21s | KE 25.4457 | drift -2.47% | fluid 5.1578 | solid 20.2879
  Impulse FP iterations last/mean/max 15/14.32/16
Step  1100/2000   55.0% | t 55.000 | ETA 2m 57s | step 0.19s | KE 25.4182 | drift -2.58% | fluid 4.0611 | solid 21.3571
  Impulse FP iterations last/mean/max 15/14.34/16
Step  1200/2000   60.0% | t 60.000 | ETA 2m 37s | step 0.20s | KE 25.4004 | drift -2.65% | fluid 4.4741 | solid 20.9263
  Impulse FP iterations last/mean/max 14/14.34/16
Step  1300/2000   65.0% | t 65.000 | ETA 2m 17s | step 0.20s | KE 25.3942 | drift -2.67% | fluid 4.7535 | solid 20.6407
  Impulse FP iterations last/mean/max 14/14.35/16
Step  1400/2000   70.0% | t 70.000 | ETA 1m 58s | step 0.19s | KE 25.4091 | drift -2.61% | fluid 3.9842 | solid 21.4249
  Impulse FP iterations last/mean/max 14/14.35/16
Step  1500/2000   75.0% | t 75.000 | ETA 1m 38s | step 0.20s | KE 25.4326 | drift -2.52% | fluid 5.6820 | solid 19.7506
  Impulse FP iterations last/mean/max 14/14.36/16
Step  1600/2000   80.0% | t 80.000 | ETA 1m 18s | step 0.20s | KE 25.4788 | drift -2.35% | fluid 4.1341 | solid 21.3447
  Impulse FP iterations last/mean/max 14/14.36/16
Step  1700/2000   85.0% | t 85.000 | ETA 59s | step 0.21s | KE 25.5291 | drift -2.15% | fluid 5.8626 | solid 19.6666
  Impulse FP iterations last/mean/max 15/14.37/16
Step  1800/2000   90.0% | t 90.000 | ETA 39s | step 0.22s | KE 25.5871 | drift -1.93% | fluid 5.8212 | solid 19.7659
  Impulse FP iterations last/mean/max 15/14.37/16
Step  1900/2000   95.0% | t 95.000 | ETA 19s | step 0.17s | KE 25.6460 | drift -1.70% | fluid 5.3667 | solid 20.2793
  Impulse FP iterations last/mean/max 14/14.38/16
Solver finished successfully - good job!
Results saved successfully.

================== Run summary ==================
  Bodies:            2
  Triangles / nodes: 256 / 516
  Timesteps:         2000  (dt = 0.05)
  Simulated time:    0 -> 100
  First-step setup:  0.385 s
  Mean time/step:    0.1956 s  (excl. first step)
  Total wall time:   6m 31s
  Impulse FP iters last/mean/max: 14 / 14.381 / 16
  Approx impulse solves/step:     14.382
  Impulse start cache hits/direct: 1999 / 1
  Impulse global drift P/H:       6.659346e-8 / 8.460392e-3
  Impulse per-body max drift P/H: 1.053603e-7 / 5.080621e-3
  CPU cores:         256 available, 8 Rayon worker thread(s)
  Started:           2026-06-22 19:47:31
  Finished:          2026-06-22 19:54:03
  Output file:       /work/e643/e643/shared/multi_ellip/studies/two_body_paper_sweeps/runs/ellipsoid_1_0p8_0p6/ellipsoid_1_0p8_0p6_rho0p3_E30_sep8_run02_impulse_noproj/multiple_body_complete.dat
================================================
