
================ Simulation setup ================
  Run label:         /work/e643/e643/shared/multi_ellip/studies/two_body_paper_sweeps/runs/spheroid_1_0p7_0p7/spheroid_1_0p7_0p7_rho1_E1p5_sep8_run02_impulse_noproj/
  Started:           2026-06-22 19:34:20
  Input file:        /work/e643/e643/shared/multi_ellip/studies/two_body_paper_sweeps/runs/spheroid_1_0p7_0p7/spheroid_1_0p7_0p7_rho1_E1p5_sep8_run02_impulse_noproj/input.txt
  Output file:       /work/e643/e643/shared/multi_ellip/studies/two_body_paper_sweeps/runs/spheroid_1_0p7_0p7/spheroid_1_0p7_0p7_rho1_E1p5_sep8_run02_impulse_noproj/multiple_body_complete.dat
  Bodies:            2
  Fluid density:     1
  Mesh:              ndiv 2 -> 256 triangles / 516 nodes
  Simulated time:    0 -> 100  (dt = 0.05, ~2000 steps)
  Output cadence:    every 1 step(s)
  Output rows:       ~2001
  Progress cadence:  every 100 step(s)
  CPU cores:         256 available, 8 Rayon worker thread(s)
  Strong coupling:   disabled
  Impulse scheme:    enabled
  Hamiltonian step:  disabled
  Hamiltonian midpt: disabled
  Variational step:  disabled
  Energy projection: disabled
  Projection particular metric: Euclidean
  Fluid KE gradient: disabled  (eps = 0.001, scale = 1, linear = 1, angular = 1)
  Fluid KE discrete gradient: disabled
  Impulse pair metric correction: disabled  (mode = pair discrete-gradient, cutoff = all pairs, inner/outer = 0/0, eps = 0.001, linear scale = 1, angular scale = 0)
  Impulse metric correction: disabled  (internal load constraint = disabled)
  Impulse variational defect probe: disabled
  Impulse quadratic pressure: disabled  (scale = 1)
  Added-mass stab:   disabled
  Exact BEM geometry: disabled
  Exact singular BEM: disabled
  Legacy singular SLP diagnostic: disabled
  Phi-dot blend:     0 (off)

  Solver guidance:
    - Strong coupling: use for stiff close-coupled runs; slower but more implicit.
    - Impulse scheme: use when impulse/momentum conservation or KE drift is the focus. Recommended.
    - Added-mass stab: use for higher mesh counts (ndiv > 3) to preserve stability - deprecated.
================================================
Solver starting - good luck!

Initial state:
  Body  1
    density:          1.000000
    shape axes ratio: (1.000000, 0.700000, 0.700000)
    initial KE ratio: 1.500000
    position:         (-4.000000, 0.000000, 0.000000)
    velocity:         (0.110761, -1.253499, -3.051978)
    angular velocity: (3.965886, -4.781100, -0.944064)
    orientation:      (w=0.577350, i=0.577350, j=0.577350, k=0.000000)
  Body  2
    density:          1.000000
    shape axes ratio: (1.000000, 0.700000, 0.700000)
    initial KE ratio: 1.500000
    position:         (4.000000, 0.000000, 0.000000)
    velocity:         (0.112100, -1.268654, -3.088879)
    angular velocity: (-3.647598, -2.242602, 4.598280)
    orientation:      (w=0.577350, i=-0.577350, j=0.000000, k=0.577350)

Preparing first step: implicit scheme, no bootstrap passes required.
First step may take longer than later steps.

First step completed in 0.335 s.

Step   100/2000    5.0% | t 5.000 | ETA 4m 28s | step 0.14s | KE 146.0391 | drift +0.09% | fluid 30.0335 | solid 116.0056
  Impulse FP iterations last/mean/max 10/9.94/10
Step   200/2000   10.0% | t 10.000 | ETA 4m 14s | step 0.14s | KE 146.0353 | drift +0.08% | fluid 28.8113 | solid 117.2240
  Impulse FP iterations last/mean/max 10/9.94/10
Step   300/2000   15.0% | t 15.000 | ETA 4m 1s | step 0.14s | KE 145.9772 | drift +0.04% | fluid 29.9650 | solid 116.0123
  Impulse FP iterations last/mean/max 10/9.94/10
Step   400/2000   20.0% | t 20.000 | ETA 3m 47s | step 0.15s | KE 146.1177 | drift +0.14% | fluid 31.3242 | solid 114.7935
  Impulse FP iterations last/mean/max 10/9.93/10
Step   500/2000   25.0% | t 25.000 | ETA 3m 32s | step 0.15s | KE 146.0022 | drift +0.06% | fluid 31.9860 | solid 114.0162
  Impulse FP iterations last/mean/max 10/9.93/10
Step   600/2000   30.0% | t 30.000 | ETA 3m 18s | step 0.14s | KE 145.8942 | drift -0.01% | fluid 31.7974 | solid 114.0968
  Impulse FP iterations last/mean/max 10/9.93/10
Step   700/2000   35.0% | t 35.000 | ETA 3m 4s | step 0.14s | KE 145.8273 | drift -0.06% | fluid 30.6424 | solid 115.1849
  Impulse FP iterations last/mean/max 10/9.94/10
Step   800/2000   40.0% | t 40.000 | ETA 2m 50s | step 0.14s | KE 145.9881 | drift +0.05% | fluid 30.6427 | solid 115.3455
  Impulse FP iterations last/mean/max 10/9.93/10
Step   900/2000   45.0% | t 45.000 | ETA 2m 36s | step 0.15s | KE 145.9430 | drift +0.02% | fluid 31.5583 | solid 114.3846
  Impulse FP iterations last/mean/max 10/9.94/10
Step  1000/2000   50.0% | t 50.000 | ETA 2m 22s | step 0.14s | KE 145.9914 | drift +0.05% | fluid 31.1685 | solid 114.8229
  Impulse FP iterations last/mean/max 10/9.94/10
Step  1100/2000   55.0% | t 55.000 | ETA 2m 8s | step 0.13s | KE 146.0185 | drift +0.07% | fluid 30.3886 | solid 115.6299
  Impulse FP iterations last/mean/max 10/9.94/10
Step  1200/2000   60.0% | t 60.000 | ETA 1m 53s | step 0.13s | KE 146.1160 | drift +0.14% | fluid 28.8155 | solid 117.3005
  Impulse FP iterations last/mean/max 10/9.94/10
Step  1300/2000   65.0% | t 65.000 | ETA 1m 39s | step 0.13s | KE 146.1330 | drift +0.15% | fluid 28.0505 | solid 118.0825
  Impulse FP iterations last/mean/max 10/9.94/10
Step  1400/2000   70.0% | t 70.000 | ETA 1m 24s | step 0.13s | KE 145.9585 | drift +0.03% | fluid 29.6629 | solid 116.2956
  Impulse FP iterations last/mean/max 10/9.94/10
Step  1500/2000   75.0% | t 75.000 | ETA 1m 9s | step 0.12s | KE 145.9449 | drift +0.02% | fluid 32.1026 | solid 113.8423
  Impulse FP iterations last/mean/max 10/9.94/10
Step  1600/2000   80.0% | t 80.000 | ETA 55s | step 0.12s | KE 145.9471 | drift +0.02% | fluid 32.9304 | solid 113.0167
  Impulse FP iterations last/mean/max 9/9.94/10
Step  1700/2000   85.0% | t 85.000 | ETA 41s | step 0.14s | KE 145.9299 | drift +0.01% | fluid 32.7604 | solid 113.1696
  Impulse FP iterations last/mean/max 10/9.94/10
Step  1800/2000   90.0% | t 90.000 | ETA 27s | step 0.14s | KE 145.9356 | drift +0.02% | fluid 30.7721 | solid 115.1634
  Impulse FP iterations last/mean/max 10/9.94/10
Step  1900/2000   95.0% | t 95.000 | ETA 13s | step 0.14s | KE 146.0482 | drift +0.09% | fluid 29.4754 | solid 116.5728
  Impulse FP iterations last/mean/max 10/9.94/10
Solver finished successfully - good job!
Results saved successfully.

================== Run summary ==================
  Bodies:            2
  Triangles / nodes: 256 / 516
  Timesteps:         2000  (dt = 0.05)
  Simulated time:    0 -> 100
  First-step setup:  0.335 s
  Mean time/step:    0.1392 s  (excl. first step)
  Total wall time:   4m 38s
  Impulse FP iters last/mean/max: 10 / 9.943 / 10
  Approx impulse solves/step:     9.944
  Impulse start cache hits/direct: 1999 / 1
  Impulse global drift P/H:       3.175507e-9 / 3.542916e-2
  Impulse per-body max drift P/H: 9.343883e-9 / 2.817070e-3
  CPU cores:         256 available, 8 Rayon worker thread(s)
  Started:           2026-06-22 19:34:20
  Finished:          2026-06-22 19:38:59
  Output file:       /work/e643/e643/shared/multi_ellip/studies/two_body_paper_sweeps/runs/spheroid_1_0p7_0p7/spheroid_1_0p7_0p7_rho1_E1p5_sep8_run02_impulse_noproj/multiple_body_complete.dat
================================================
