
================ Simulation setup ================
  Run label:         /work/e643/e643/shared/multi_ellip/studies/two_body_paper_sweeps/runs/spheroid_1_0p7_0p7/spheroid_1_0p7_0p7_rho0p1_E30_sep5_run04_impulse_noproj/
  Started:           2026-06-24 02:15:02
  Input file:        /work/e643/e643/shared/multi_ellip/studies/two_body_paper_sweeps/runs/spheroid_1_0p7_0p7/spheroid_1_0p7_0p7_rho0p1_E30_sep5_run04_impulse_noproj/input.txt
  Output file:       /work/e643/e643/shared/multi_ellip/studies/two_body_paper_sweeps/runs/spheroid_1_0p7_0p7/spheroid_1_0p7_0p7_rho0p1_E30_sep5_run04_impulse_noproj/multiple_body_complete.dat
  Bodies:            2
  Fluid density:     1
  Mesh:              ndiv 2 -> 256 triangles / 516 nodes
  Simulated time:    0 -> 100  (dt = 0.05, ~2000 steps)
  Output cadence:    every 1 step(s)
  Output rows:       ~2001
  Progress cadence:  every 100 step(s)
  CPU cores:         256 available, 8 Rayon worker thread(s)
  Strong coupling:   disabled
  Impulse scheme:    enabled
  Hamiltonian step:  disabled
  Hamiltonian midpt: disabled
  Variational step:  disabled
  Energy projection: disabled
  Projection particular metric: Euclidean
  Fluid KE gradient: disabled  (eps = 0.001, scale = 1, linear = 1, angular = 1)
  Fluid KE discrete gradient: disabled
  Impulse pair metric correction: disabled  (mode = pair discrete-gradient, cutoff = all pairs, inner/outer = 0/0, eps = 0.001, linear scale = 1, angular scale = 0)
  Impulse metric correction: disabled  (internal load constraint = disabled)
  Impulse variational defect probe: disabled
  Impulse quadratic pressure: disabled  (scale = 1)
  Added-mass stab:   disabled
  Exact BEM geometry: disabled
  Exact singular BEM: disabled
  Legacy singular SLP diagnostic: disabled
  Phi-dot blend:     0 (off)

  Solver guidance:
    - Strong coupling: use for stiff close-coupled runs; slower but more implicit.
    - Impulse scheme: use when impulse/momentum conservation or KE drift is the focus. Recommended.
    - Added-mass stab: use for higher mesh counts (ndiv > 3) to preserve stability - deprecated.
================================================
Solver starting - good luck!

Initial state:
  Body  1
    density:          0.100000
    shape axes ratio: (1.000000, 0.700000, 0.700000)
    initial KE ratio: 30.000000
    position:         (-2.500000, 0.000000, 0.000000)
    velocity:         (-0.135521, -0.511735, -0.535349)
    angular velocity: (3.423301, 3.905684, -3.536250)
    orientation:      (w=-0.014400, i=-0.854981, j=-0.497500, k=-0.145926)
  Body  2
    density:          0.100000
    shape axes ratio: (1.000000, 0.700000, 0.700000)
    initial KE ratio: 30.000000
    position:         (2.500000, 0.000000, 0.000000)
    velocity:         (-0.136322, -0.514759, -0.538512)
    angular velocity: (-3.238940, 5.279845, -1.054003)
    orientation:      (w=-0.141730, i=-0.012399, j=-0.280928, k=-0.949125)

Preparing first step: implicit scheme, no bootstrap passes required.
First step may take longer than later steps.

First step completed in 0.313 s.

Step   100/2000    5.0% | t 5.000 | ETA 6m 44s | step 0.18s | KE 11.4817 | drift -0.76% | fluid 4.7112 | solid 6.7705
  Impulse FP iterations last/mean/max 16/16.52/18
Step   200/2000   10.0% | t 10.000 | ETA 6m 17s | step 0.19s | KE 10.4695 | drift -9.51% | fluid 4.3752 | solid 6.0942
  Impulse FP iterations last/mean/max 17/16.55/18
Step   300/2000   15.0% | t 15.000 | ETA 5m 51s | step 0.21s | KE 9.6656 | drift -16.46% | fluid 4.2460 | solid 5.4196
  Impulse FP iterations last/mean/max 15/16.43/18
Step   400/2000   20.0% | t 20.000 | ETA 5m 31s | step 0.18s | KE 9.6640 | drift -16.47% | fluid 4.0752 | solid 5.5888
  Impulse FP iterations last/mean/max 16/16.29/18
Step   500/2000   25.0% | t 25.000 | ETA 5m 9s | step 0.20s | KE 9.9971 | drift -13.59% | fluid 4.1818 | solid 5.8153
  Impulse FP iterations last/mean/max 15/16.22/18
Step   600/2000   30.0% | t 30.000 | ETA 4m 47s | step 0.19s | KE 10.2751 | drift -11.19% | fluid 4.4233 | solid 5.8517
  Impulse FP iterations last/mean/max 17/16.15/18
Step   700/2000   35.0% | t 35.000 | ETA 4m 22s | step 0.17s | KE 10.4382 | drift -9.78% | fluid 4.3865 | solid 6.0517
  Impulse FP iterations last/mean/max 15/16.16/18
Step   800/2000   40.0% | t 40.000 | ETA 4m 1s | step 0.19s | KE 10.5001 | drift -9.24% | fluid 4.4724 | solid 6.0277
  Impulse FP iterations last/mean/max 16/16.10/18
Step   900/2000   45.0% | t 45.000 | ETA 3m 41s | step 0.20s | KE 10.5234 | drift -9.04% | fluid 4.4563 | solid 6.0671
  Impulse FP iterations last/mean/max 15/16.07/18
Step  1000/2000   50.0% | t 50.000 | ETA 3m 20s | step 0.19s | KE 10.5076 | drift -9.18% | fluid 4.4771 | solid 6.0305
  Impulse FP iterations last/mean/max 16/16.07/18
Step  1100/2000   55.0% | t 55.000 | ETA 3m 0s | step 0.17s | KE 10.4881 | drift -9.35% | fluid 4.3874 | solid 6.1007
  Impulse FP iterations last/mean/max 14/16.05/18
Step  1200/2000   60.0% | t 60.000 | ETA 2m 40s | step 0.19s | KE 10.4631 | drift -9.56% | fluid 4.5193 | solid 5.9438
  Impulse FP iterations last/mean/max 16/16.04/19
Step  1300/2000   65.0% | t 65.000 | ETA 2m 19s | step 0.20s | KE 10.4445 | drift -9.72% | fluid 4.3672 | solid 6.0773
  Impulse FP iterations last/mean/max 15/16.04/19
Step  1400/2000   70.0% | t 70.000 | ETA 1m 58s | step 0.18s | KE 10.4307 | drift -9.84% | fluid 4.4508 | solid 5.9799
  Impulse FP iterations last/mean/max 15/16.02/19
Step  1500/2000   75.0% | t 75.000 | ETA 1m 38s | step 0.16s | KE 10.4311 | drift -9.84% | fluid 4.4203 | solid 6.0108
  Impulse FP iterations last/mean/max 14/16.00/19
Step  1600/2000   80.0% | t 80.000 | ETA 1m 18s | step 0.20s | KE 10.4268 | drift -9.88% | fluid 4.4378 | solid 5.9890
  Impulse FP iterations last/mean/max 15/16.00/19
Step  1700/2000   85.0% | t 85.000 | ETA 59s | step 0.17s | KE 10.4364 | drift -9.79% | fluid 4.3616 | solid 6.0748
  Impulse FP iterations last/mean/max 15/16.00/19
Step  1800/2000   90.0% | t 90.000 | ETA 39s | step 0.20s | KE 10.4418 | drift -9.75% | fluid 4.4931 | solid 5.9487
  Impulse FP iterations last/mean/max 16/16.00/19
Step  1900/2000   95.0% | t 95.000 | ETA 19s | step 0.16s | KE 10.4465 | drift -9.71% | fluid 4.3525 | solid 6.0940
  Impulse FP iterations last/mean/max 14/15.99/19
Solver finished successfully - good job!
Results saved successfully.

================== Run summary ==================
  Bodies:            2
  Triangles / nodes: 256 / 516
  Timesteps:         2000  (dt = 0.05)
  Simulated time:    0 -> 100
  First-step setup:  0.313 s
  Mean time/step:    0.1955 s  (excl. first step)
  Total wall time:   6m 31s
  Impulse FP iters last/mean/max: 16 / 15.971 / 19
  Approx impulse solves/step:     15.972
  Impulse start cache hits/direct: 1999 / 1
  Impulse global drift P/H:       6.252438e-8 / 5.377746e-3
  Impulse per-body max drift P/H: 1.202934e-7 / 4.725619e-3
  CPU cores:         256 available, 8 Rayon worker thread(s)
  Started:           2026-06-24 02:15:02
  Finished:          2026-06-24 02:21:34
  Output file:       /work/e643/e643/shared/multi_ellip/studies/two_body_paper_sweeps/runs/spheroid_1_0p7_0p7/spheroid_1_0p7_0p7_rho0p1_E30_sep5_run04_impulse_noproj/multiple_body_complete.dat
================================================
