
================ Simulation setup ================
  Run label:         /work/e643/e643/shared/multi_ellip/studies/departing_sphericity_sweep/runs/spheroid_prolate/homogeneous/spheroid_prolate_homogeneous_eps0p3_rho1_E0p5_sep8_run05_impulse_noproj/
  Started:           2026-06-24 02:30:37
  Input file:        /work/e643/e643/shared/multi_ellip/studies/departing_sphericity_sweep/runs/spheroid_prolate/homogeneous/spheroid_prolate_homogeneous_eps0p3_rho1_E0p5_sep8_run05_impulse_noproj/input.txt
  Output file:       /work/e643/e643/shared/multi_ellip/studies/departing_sphericity_sweep/runs/spheroid_prolate/homogeneous/spheroid_prolate_homogeneous_eps0p3_rho1_E0p5_sep8_run05_impulse_noproj/multiple_body_complete.dat
  Bodies:            2
  Fluid density:     1
  Mesh:              ndiv 2 -> 256 triangles / 516 nodes
  Simulated time:    0 -> 100  (dt = 0.05, ~2000 steps)
  Output cadence:    every 1 step(s)
  Output rows:       ~2001
  Progress cadence:  every 100 step(s)
  CPU cores:         256 available, 8 Rayon worker thread(s)
  Strong coupling:   disabled
  Impulse scheme:    enabled
  Hamiltonian step:  disabled
  Hamiltonian midpt: disabled
  Variational step:  disabled
  Energy projection: disabled
  Projection particular metric: Euclidean
  Fluid KE gradient: disabled  (eps = 0.001, scale = 1, linear = 1, angular = 1)
  Fluid KE discrete gradient: disabled
  Impulse pair metric correction: disabled  (mode = pair discrete-gradient, cutoff = all pairs, inner/outer = 0/0, eps = 0.001, linear scale = 1, angular scale = 0)
  Impulse metric correction: disabled  (internal load constraint = disabled)
  Impulse variational defect probe: disabled
  Impulse quadratic pressure: disabled  (scale = 1)
  Added-mass stab:   disabled
  Exact BEM geometry: disabled
  Exact singular BEM: disabled
  Legacy singular SLP diagnostic: disabled
  Phi-dot blend:     0 (off)

  Solver guidance:
    - Strong coupling: use for stiff close-coupled runs; slower but more implicit.
    - Impulse scheme: use when impulse/momentum conservation or KE drift is the focus. Recommended.
    - Added-mass stab: use for higher mesh counts (ndiv > 3) to preserve stability - deprecated.
================================================
Solver starting - good luck!

Initial state:
  Body  1
    density:          1.000000
    shape axes ratio: (1.000000, 0.455166, 0.455166)
    initial KE ratio: 0.500000
    position:         (-4.000000, 0.000000, 0.000000)
    velocity:         (4.778990, 0.331649, 5.027759)
    angular velocity: (2.620248, -5.319738, -2.076802)
    orientation:      (w=0.483874, i=-0.799006, j=-0.332506, k=0.129985)
  Body  2
    density:          1.000000
    shape axes ratio: (1.000000, 0.455166, 0.455166)
    initial KE ratio: 0.500000
    position:         (4.000000, 0.000000, 0.000000)
    velocity:         (4.770504, 0.331060, 5.018831)
    angular velocity: (-2.656054, -3.883645, -4.164264)
    orientation:      (w=0.406037, i=0.078664, j=0.356370, k=0.837822)

Preparing first step: implicit scheme, no bootstrap passes required.
First step may take longer than later steps.

First step completed in 0.360 s.

Step   100/2000    5.0% | t 5.000 | ETA 5m 17s | step 0.15s | KE 467.5146 | drift -0.04% | fluid 134.3779 | solid 333.1367
  Impulse FP iterations last/mean/max 11/11.86/13
Step   200/2000   10.0% | t 10.000 | ETA 4m 45s | step 0.14s | KE 465.8826 | drift -0.39% | fluid 168.8770 | solid 297.0056
  Impulse FP iterations last/mean/max 12/11.84/13
Step   300/2000   15.0% | t 15.000 | ETA 4m 28s | step 0.16s | KE 467.4598 | drift -0.05% | fluid 131.3363 | solid 336.1235
  Impulse FP iterations last/mean/max 12/11.83/13
Step   400/2000   20.0% | t 20.000 | ETA 4m 16s | step 0.17s | KE 467.4047 | drift -0.06% | fluid 129.5351 | solid 337.8696
  Impulse FP iterations last/mean/max 12/11.82/13
Step   500/2000   25.0% | t 25.000 | ETA 4m 3s | step 0.15s | KE 465.6824 | drift -0.43% | fluid 171.7461 | solid 293.9363
  Impulse FP iterations last/mean/max 11/11.83/13
Step   600/2000   30.0% | t 30.000 | ETA 3m 48s | step 0.17s | KE 467.6930 | drift -0.00% | fluid 133.2754 | solid 334.4176
  Impulse FP iterations last/mean/max 12/11.81/13
Step   700/2000   35.0% | t 35.000 | ETA 3m 33s | step 0.15s | KE 467.1101 | drift -0.13% | fluid 149.5372 | solid 317.5730
  Impulse FP iterations last/mean/max 11/11.82/13
Step   800/2000   40.0% | t 40.000 | ETA 3m 17s | step 0.18s | KE 466.6569 | drift -0.22% | fluid 152.1009 | solid 314.5560
  Impulse FP iterations last/mean/max 12/11.81/13
Step   900/2000   45.0% | t 45.000 | ETA 3m 1s | step 0.18s | KE 467.3042 | drift -0.08% | fluid 128.3053 | solid 338.9989
  Impulse FP iterations last/mean/max 12/11.81/13
Step  1000/2000   50.0% | t 50.000 | ETA 2m 45s | step 0.18s | KE 466.6697 | drift -0.22% | fluid 153.2236 | solid 313.4461
  Impulse FP iterations last/mean/max 12/11.81/13
Step  1100/2000   55.0% | t 55.000 | ETA 2m 29s | step 0.17s | KE 467.2002 | drift -0.11% | fluid 145.0868 | solid 322.1133
  Impulse FP iterations last/mean/max 12/11.82/13
Step  1200/2000   60.0% | t 60.000 | ETA 2m 13s | step 0.17s | KE 467.2371 | drift -0.10% | fluid 141.8774 | solid 325.3597
  Impulse FP iterations last/mean/max 12/11.82/13
Step  1300/2000   65.0% | t 65.000 | ETA 1m 56s | step 0.18s | KE 466.1989 | drift -0.32% | fluid 163.5727 | solid 302.6263
  Impulse FP iterations last/mean/max 12/11.82/13
Step  1400/2000   70.0% | t 70.000 | ETA 1m 39s | step 0.17s | KE 467.6368 | drift -0.01% | fluid 125.0783 | solid 342.5585
  Impulse FP iterations last/mean/max 12/11.82/13
Step  1500/2000   75.0% | t 75.000 | ETA 1m 22s | step 0.15s | KE 466.9473 | drift -0.16% | fluid 143.4297 | solid 323.5177
  Impulse FP iterations last/mean/max 12/11.82/13
Step  1600/2000   80.0% | t 80.000 | ETA 1m 5s | step 0.12s | KE 466.2604 | drift -0.31% | fluid 163.1452 | solid 303.1152
  Impulse FP iterations last/mean/max 11/11.82/13
Step  1700/2000   85.0% | t 85.000 | ETA 48s | step 0.12s | KE 467.8534 | drift +0.03% | fluid 128.0373 | solid 339.8162
  Impulse FP iterations last/mean/max 12/11.82/13
Step  1800/2000   90.0% | t 90.000 | ETA 31s | step 0.12s | KE 466.0635 | drift -0.35% | fluid 166.0172 | solid 300.0463
  Impulse FP iterations last/mean/max 11/11.82/13
Step  1900/2000   95.0% | t 95.000 | ETA 15s | step 0.13s | KE 467.0261 | drift -0.14% | fluid 139.3848 | solid 327.6413
  Impulse FP iterations last/mean/max 12/11.82/13
Solver finished successfully - good job!
Results saved successfully.

================== Run summary ==================
  Bodies:            2
  Triangles / nodes: 256 / 516
  Timesteps:         2000  (dt = 0.05)
  Simulated time:    0 -> 100
  First-step setup:  0.360 s
  Mean time/step:    0.1558 s  (excl. first step)
  Total wall time:   5m 11s
  Impulse FP iters last/mean/max: 12 / 11.815 / 13
  Approx impulse solves/step:     11.816
  Impulse start cache hits/direct: 1999 / 1
  Impulse global drift P/H:       3.998439e-9 / 8.057649e-3
  Impulse per-body max drift P/H: 8.546728e-9 / 1.331499e-3
  CPU cores:         256 available, 8 Rayon worker thread(s)
  Started:           2026-06-24 02:30:37
  Finished:          2026-06-24 02:35:49
  Output file:       /work/e643/e643/shared/multi_ellip/studies/departing_sphericity_sweep/runs/spheroid_prolate/homogeneous/spheroid_prolate_homogeneous_eps0p3_rho1_E0p5_sep8_run05_impulse_noproj/multiple_body_complete.dat
================================================
