
================ Simulation setup ================
  Run label:         /work/e643/e643/shared/multi_ellip/studies/two_body_paper_sweeps/runs/spheroid_1_0p7_0p7/spheroid_1_0p7_0p7_rho10_E11_sep5_run04_impulse_noproj/
  Started:           2026-06-24 01:18:37
  Input file:        /work/e643/e643/shared/multi_ellip/studies/two_body_paper_sweeps/runs/spheroid_1_0p7_0p7/spheroid_1_0p7_0p7_rho10_E11_sep5_run04_impulse_noproj/input.txt
  Output file:       /work/e643/e643/shared/multi_ellip/studies/two_body_paper_sweeps/runs/spheroid_1_0p7_0p7/spheroid_1_0p7_0p7_rho10_E11_sep5_run04_impulse_noproj/multiple_body_complete.dat
  Bodies:            2
  Fluid density:     1
  Mesh:              ndiv 2 -> 256 triangles / 516 nodes
  Simulated time:    0 -> 100  (dt = 0.05, ~2000 steps)
  Output cadence:    every 1 step(s)
  Output rows:       ~2001
  Progress cadence:  every 100 step(s)
  CPU cores:         256 available, 8 Rayon worker thread(s)
  Strong coupling:   disabled
  Impulse scheme:    enabled
  Hamiltonian step:  disabled
  Hamiltonian midpt: disabled
  Variational step:  disabled
  Energy projection: disabled
  Projection particular metric: Euclidean
  Fluid KE gradient: disabled  (eps = 0.001, scale = 1, linear = 1, angular = 1)
  Fluid KE discrete gradient: disabled
  Impulse pair metric correction: disabled  (mode = pair discrete-gradient, cutoff = all pairs, inner/outer = 0/0, eps = 0.001, linear scale = 1, angular scale = 0)
  Impulse metric correction: disabled  (internal load constraint = disabled)
  Impulse variational defect probe: disabled
  Impulse quadratic pressure: disabled  (scale = 1)
  Added-mass stab:   disabled
  Exact BEM geometry: disabled
  Exact singular BEM: disabled
  Legacy singular SLP diagnostic: disabled
  Phi-dot blend:     0 (off)

  Solver guidance:
    - Strong coupling: use for stiff close-coupled runs; slower but more implicit.
    - Impulse scheme: use when impulse/momentum conservation or KE drift is the focus. Recommended.
    - Added-mass stab: use for higher mesh counts (ndiv > 3) to preserve stability - deprecated.
================================================
Solver starting - good luck!

Initial state:
  Body  1
    density:          10.000000
    shape axes ratio: (1.000000, 0.700000, 0.700000)
    initial KE ratio: 11.000000
    position:         (-2.500000, 0.000000, 0.000000)
    velocity:         (0.790245, 0.506940, 0.913647)
    angular velocity: (-0.551031, 2.118863, -5.889414)
    orientation:      (w=-0.437976, i=0.266695, j=-0.764515, k=-0.390599)
  Body  2
    density:          10.000000
    shape axes ratio: (1.000000, 0.700000, 0.700000)
    initial KE ratio: 11.000000
    position:         (2.500000, 0.000000, 0.000000)
    velocity:         (0.770908, 0.494536, 0.891291)
    angular velocity: (-2.421632, -5.193947, 2.576243)
    orientation:      (w=-0.420164, i=0.263808, j=0.411640, k=-0.764474)

Preparing first step: implicit scheme, no bootstrap passes required.
First step may take longer than later steps.

First step completed in 0.254 s.

Step   100/2000    5.0% | t 5.000 | ETA 3m 2s | step 0.10s | KE 734.2711 | drift -0.01% | fluid 6.9902 | solid 727.2808
  Impulse FP iterations last/mean/max 7/6.72/8
Step   200/2000   10.0% | t 10.000 | ETA 2m 52s | step 0.09s | KE 734.2053 | drift -0.02% | fluid 7.4896 | solid 726.7157
  Impulse FP iterations last/mean/max 7/6.71/8
Step   300/2000   15.0% | t 15.000 | ETA 2m 43s | step 0.10s | KE 734.1561 | drift -0.03% | fluid 7.0388 | solid 727.1173
  Impulse FP iterations last/mean/max 7/6.73/8
Step   400/2000   20.0% | t 20.000 | ETA 2m 33s | step 0.10s | KE 734.1007 | drift -0.03% | fluid 7.1895 | solid 726.9112
  Impulse FP iterations last/mean/max 7/6.72/8
Step   500/2000   25.0% | t 25.000 | ETA 2m 23s | step 0.10s | KE 734.0131 | drift -0.04% | fluid 6.8388 | solid 727.1743
  Impulse FP iterations last/mean/max 7/6.72/8
Step   600/2000   30.0% | t 30.000 | ETA 2m 14s | step 0.10s | KE 733.9397 | drift -0.05% | fluid 7.3163 | solid 726.6234
  Impulse FP iterations last/mean/max 7/6.73/8
Step   700/2000   35.0% | t 35.000 | ETA 2m 4s | step 0.10s | KE 733.8434 | drift -0.07% | fluid 7.0049 | solid 726.8385
  Impulse FP iterations last/mean/max 7/6.73/8
Step   800/2000   40.0% | t 40.000 | ETA 1m 53s | step 0.08s | KE 733.7953 | drift -0.07% | fluid 7.3087 | solid 726.4866
  Impulse FP iterations last/mean/max 7/6.73/8
Step   900/2000   45.0% | t 45.000 | ETA 1m 42s | step 0.09s | KE 733.7125 | drift -0.09% | fluid 7.0708 | solid 726.6417
  Impulse FP iterations last/mean/max 7/6.73/8
Step  1000/2000   50.0% | t 50.000 | ETA 1m 33s | step 0.10s | KE 733.6815 | drift -0.09% | fluid 7.2209 | solid 726.4606
  Impulse FP iterations last/mean/max 7/6.74/8
Step  1100/2000   55.0% | t 55.000 | ETA 1m 23s | step 0.09s | KE 733.6168 | drift -0.10% | fluid 7.1205 | solid 726.4964
  Impulse FP iterations last/mean/max 6/6.73/8
Step  1200/2000   60.0% | t 60.000 | ETA 1m 14s | step 0.11s | KE 733.6227 | drift -0.10% | fluid 6.5455 | solid 727.0772
  Impulse FP iterations last/mean/max 7/6.74/8
Step  1300/2000   65.0% | t 65.000 | ETA 1m 5s | step 0.09s | KE 733.6141 | drift -0.10% | fluid 6.5129 | solid 727.1012
  Impulse FP iterations last/mean/max 6/6.73/8
Step  1400/2000   70.0% | t 70.000 | ETA 56s | step 0.10s | KE 733.6064 | drift -0.10% | fluid 6.2497 | solid 727.3567
  Impulse FP iterations last/mean/max 7/6.73/8
Step  1500/2000   75.0% | t 75.000 | ETA 47s | step 0.10s | KE 733.5939 | drift -0.10% | fluid 7.1429 | solid 726.4509
  Impulse FP iterations last/mean/max 7/6.74/8
Step  1600/2000   80.0% | t 80.000 | ETA 37s | step 0.10s | KE 733.5801 | drift -0.10% | fluid 7.2878 | solid 726.2922
  Impulse FP iterations last/mean/max 7/6.73/8
Step  1700/2000   85.0% | t 85.000 | ETA 28s | step 0.09s | KE 733.6425 | drift -0.10% | fluid 6.5718 | solid 727.0707
  Impulse FP iterations last/mean/max 6/6.73/8
Step  1800/2000   90.0% | t 90.000 | ETA 18s | step 0.10s | KE 733.6890 | drift -0.09% | fluid 7.3734 | solid 726.3156
  Impulse FP iterations last/mean/max 7/6.74/8
Step  1900/2000   95.0% | t 95.000 | ETA 9s | step 0.08s | KE 733.7188 | drift -0.08% | fluid 7.6998 | solid 726.0189
  Impulse FP iterations last/mean/max 7/6.73/8
Solver finished successfully - good job!
Results saved successfully.

================== Run summary ==================
  Bodies:            2
  Triangles / nodes: 256 / 516
  Timesteps:         2000  (dt = 0.05)
  Simulated time:    0 -> 100
  First-step setup:  0.254 s
  Mean time/step:    0.0933 s  (excl. first step)
  Total wall time:   3m 6s
  Impulse FP iters last/mean/max: 6 / 6.736 / 8
  Approx impulse solves/step:     6.736
  Impulse start cache hits/direct: 1999 / 1
  Impulse global drift P/H:       8.250798e-9 / 1.030697e-2
  Impulse per-body max drift P/H: 1.480753e-8 / 3.457813e-3
  CPU cores:         256 available, 8 Rayon worker thread(s)
  Started:           2026-06-24 01:18:37
  Finished:          2026-06-24 01:21:45
  Output file:       /work/e643/e643/shared/multi_ellip/studies/two_body_paper_sweeps/runs/spheroid_1_0p7_0p7/spheroid_1_0p7_0p7_rho10_E11_sep5_run04_impulse_noproj/multiple_body_complete.dat
================================================
