
================ Simulation setup ================
  Run label:         /work/e643/e643/shared/multi_ellip/studies/departing_sphericity_sweep/runs/spheroid_oblate/homogeneous/spheroid_oblate_homogeneous_eps0p0003_rho1_E0p5_sep8_run09_impulse_noproj/
  Started:           2026-06-24 02:23:12
  Input file:        /work/e643/e643/shared/multi_ellip/studies/departing_sphericity_sweep/runs/spheroid_oblate/homogeneous/spheroid_oblate_homogeneous_eps0p0003_rho1_E0p5_sep8_run09_impulse_noproj/input.txt
  Output file:       /work/e643/e643/shared/multi_ellip/studies/departing_sphericity_sweep/runs/spheroid_oblate/homogeneous/spheroid_oblate_homogeneous_eps0p0003_rho1_E0p5_sep8_run09_impulse_noproj/multiple_body_complete.dat
  Bodies:            2
  Fluid density:     1
  Mesh:              ndiv 2 -> 256 triangles / 516 nodes
  Simulated time:    0 -> 100  (dt = 0.05, ~2000 steps)
  Output cadence:    every 1 step(s)
  Output rows:       ~2001
  Progress cadence:  every 100 step(s)
  CPU cores:         256 available, 8 Rayon worker thread(s)
  Strong coupling:   disabled
  Impulse scheme:    enabled
  Hamiltonian step:  disabled
  Hamiltonian midpt: disabled
  Variational step:  disabled
  Energy projection: disabled
  Projection particular metric: Euclidean
  Fluid KE gradient: disabled  (eps = 0.001, scale = 1, linear = 1, angular = 1)
  Fluid KE discrete gradient: disabled
  Impulse pair metric correction: disabled  (mode = pair discrete-gradient, cutoff = all pairs, inner/outer = 0/0, eps = 0.001, linear scale = 1, angular scale = 0)
  Impulse metric correction: disabled  (internal load constraint = disabled)
  Impulse variational defect probe: disabled
  Impulse quadratic pressure: disabled  (scale = 1)
  Added-mass stab:   disabled
  Exact BEM geometry: disabled
  Exact singular BEM: disabled
  Legacy singular SLP diagnostic: disabled
  Phi-dot blend:     0 (off)

  Solver guidance:
    - Strong coupling: use for stiff close-coupled runs; slower but more implicit.
    - Impulse scheme: use when impulse/momentum conservation or KE drift is the focus. Recommended.
    - Added-mass stab: use for higher mesh counts (ndiv > 3) to preserve stability - deprecated.
================================================
Solver starting - good luck!

Initial state:
  Body  1
    density:          1.000000
    shape axes ratio: (1.000000, 1.000000, 0.999101)
    initial KE ratio: 0.500000
    position:         (-4.000000, 0.000000, 0.000000)
    velocity:         (3.826901, 0.367128, -4.099165)
    angular velocity: (5.035295, -0.676491, 3.696835)
    orientation:      (w=0.637889, i=-0.487779, j=0.099274, k=-0.587634)
  Body  2
    density:          1.000000
    shape axes ratio: (1.000000, 1.000000, 0.999101)
    initial KE ratio: 0.500000
    position:         (4.000000, 0.000000, 0.000000)
    velocity:         (3.827143, 0.367151, -4.099423)
    angular velocity: (4.206307, -1.608416, 4.381597)
    orientation:      (w=0.528334, i=0.798641, j=0.162713, k=-0.237824)

Preparing first step: implicit scheme, no bootstrap passes required.
First step may take longer than later steps.

First step completed in 3.678 s.

Step   100/2000    5.0% | t 5.000 | ETA 2m 49s | step 0.08s | KE 274.8636 | drift +1.53% | fluid 72.2802 | solid 202.5834
  Impulse FP iterations last/mean/max 7/7.00/7
Step   200/2000   10.0% | t 10.000 | ETA 2m 33s | step 0.08s | KE 282.1626 | drift +4.23% | fluid 72.2796 | solid 209.8830
  Impulse FP iterations last/mean/max 7/7.00/7
Step   300/2000   15.0% | t 15.000 | ETA 2m 23s | step 0.09s | KE 292.6356 | drift +8.09% | fluid 72.2933 | solid 220.3422
  Impulse FP iterations last/mean/max 7/7.00/7
Step   400/2000   20.0% | t 20.000 | ETA 2m 17s | step 0.09s | KE 306.3037 | drift +13.14% | fluid 72.2891 | solid 234.0146
  Impulse FP iterations last/mean/max 7/7.00/7
Step   500/2000   25.0% | t 25.000 | ETA 2m 11s | step 0.10s | KE 323.1835 | drift +19.38% | fluid 72.2838 | solid 250.8997
  Impulse FP iterations last/mean/max 7/7.01/8
Step   600/2000   30.0% | t 30.000 | ETA 2m 5s | step 0.10s | KE 343.2900 | drift +26.80% | fluid 72.2823 | solid 271.0077
  Impulse FP iterations last/mean/max 7/7.04/8
Step   700/2000   35.0% | t 35.000 | ETA 1m 57s | step 0.09s | KE 366.6408 | drift +35.43% | fluid 72.2880 | solid 294.3528
  Impulse FP iterations last/mean/max 7/7.09/8
Step   800/2000   40.0% | t 40.000 | ETA 1m 50s | step 0.09s | KE 393.2518 | drift +45.26% | fluid 72.2958 | solid 320.9560
  Impulse FP iterations last/mean/max 7/7.14/8
Step   900/2000   45.0% | t 45.000 | ETA 1m 42s | step 0.10s | KE 423.1445 | drift +56.30% | fluid 72.2921 | solid 350.8524
  Impulse FP iterations last/mean/max 8/7.19/8
Step  1000/2000   50.0% | t 50.000 | ETA 1m 34s | step 0.11s | KE 456.3367 | drift +68.56% | fluid 72.2791 | solid 384.0576
  Impulse FP iterations last/mean/max 8/7.24/8
Step  1100/2000   55.0% | t 55.000 | ETA 1m 25s | step 0.10s | KE 492.8320 | drift +82.04% | fluid 72.2822 | solid 420.5498
  Impulse FP iterations last/mean/max 7/7.29/8
Step  1200/2000   60.0% | t 60.000 | ETA 1m 16s | step 0.10s | KE 532.6581 | drift +96.75% | fluid 72.2765 | solid 460.3816
  Impulse FP iterations last/mean/max 8/7.34/8
Step  1300/2000   65.0% | t 65.000 | ETA 1m 7s | step 0.11s | KE 575.8075 | drift +112.69% | fluid 72.2978 | solid 503.5097
  Impulse FP iterations last/mean/max 8/7.37/8
Step  1400/2000   70.0% | t 70.000 | ETA 57s | step 0.10s | KE 622.3271 | drift +129.87% | fluid 72.2949 | solid 550.0323
  Impulse FP iterations last/mean/max 8/7.41/8
Step  1500/2000   75.0% | t 75.000 | ETA 47s | step 0.09s | KE 672.2278 | drift +148.31% | fluid 72.2804 | solid 599.9474
  Impulse FP iterations last/mean/max 8/7.44/8
Step  1600/2000   80.0% | t 80.000 | ETA 38s | step 0.08s | KE 725.5068 | drift +167.99% | fluid 72.2775 | solid 653.2293
  Impulse FP iterations last/mean/max 8/7.46/8
Step  1700/2000   85.0% | t 85.000 | ETA 28s | step 0.07s | KE 782.1625 | drift +188.91% | fluid 72.2968 | solid 709.8657
  Impulse FP iterations last/mean/max 8/7.49/8
Step  1800/2000   90.0% | t 90.000 | ETA 18s | step 0.07s | KE 842.2584 | drift +211.11% | fluid 72.2908 | solid 769.9676
  Impulse FP iterations last/mean/max 8/7.51/8
Step  1900/2000   95.0% | t 95.000 | ETA 9s | step 0.06s | KE 905.7964 | drift +234.58% | fluid 72.2773 | solid 833.5192
  Impulse FP iterations last/mean/max 8/7.53/8
Solver finished successfully - good job!
Results saved successfully.

================== Run summary ==================
  Bodies:            2
  Triangles / nodes: 256 / 516
  Timesteps:         2000  (dt = 0.05)
  Simulated time:    0 -> 100
  First-step setup:  3.678 s
  Mean time/step:    0.0903 s  (excl. first step)
  Total wall time:   3m 4s
  Impulse FP iters last/mean/max: 8 / 7.551 / 8
  Approx impulse solves/step:     7.551
  Impulse start cache hits/direct: 1999 / 1
  Impulse global drift P/H:       3.927161e-9 / 7.771530e-2
  Impulse per-body max drift P/H: 6.675213e-9 / 7.927267e-3
  CPU cores:         256 available, 8 Rayon worker thread(s)
  Started:           2026-06-24 02:23:12
  Finished:          2026-06-24 02:26:18
  Output file:       /work/e643/e643/shared/multi_ellip/studies/departing_sphericity_sweep/runs/spheroid_oblate/homogeneous/spheroid_oblate_homogeneous_eps0p0003_rho1_E0p5_sep8_run09_impulse_noproj/multiple_body_complete.dat
================================================
