
================ Simulation setup ================
  Run label:         /work/e643/e643/shared/multi_ellip/studies/departing_sphericity_sweep/runs/triaxial/homogeneous/triaxial_homogeneous_eps0p0003_rho1_E0p5_sep8_run01_impulse_noproj/
  Started:           2026-06-24 02:23:18
  Input file:        /work/e643/e643/shared/multi_ellip/studies/departing_sphericity_sweep/runs/triaxial/homogeneous/triaxial_homogeneous_eps0p0003_rho1_E0p5_sep8_run01_impulse_noproj/input.txt
  Output file:       /work/e643/e643/shared/multi_ellip/studies/departing_sphericity_sweep/runs/triaxial/homogeneous/triaxial_homogeneous_eps0p0003_rho1_E0p5_sep8_run01_impulse_noproj/multiple_body_complete.dat
  Bodies:            2
  Fluid density:     1
  Mesh:              ndiv 2 -> 256 triangles / 516 nodes
  Simulated time:    0 -> 100  (dt = 0.05, ~2000 steps)
  Output cadence:    every 1 step(s)
  Output rows:       ~2001
  Progress cadence:  every 100 step(s)
  CPU cores:         256 available, 8 Rayon worker thread(s)
  Strong coupling:   disabled
  Impulse scheme:    enabled
  Hamiltonian step:  disabled
  Hamiltonian midpt: disabled
  Variational step:  disabled
  Energy projection: disabled
  Projection particular metric: Euclidean
  Fluid KE gradient: disabled  (eps = 0.001, scale = 1, linear = 1, angular = 1)
  Fluid KE discrete gradient: disabled
  Impulse pair metric correction: disabled  (mode = pair discrete-gradient, cutoff = all pairs, inner/outer = 0/0, eps = 0.001, linear scale = 1, angular scale = 0)
  Impulse metric correction: disabled  (internal load constraint = disabled)
  Impulse variational defect probe: disabled
  Impulse quadratic pressure: disabled  (scale = 1)
  Added-mass stab:   disabled
  Exact BEM geometry: disabled
  Exact singular BEM: disabled
  Legacy singular SLP diagnostic: disabled
  Phi-dot blend:     0 (off)

  Solver guidance:
    - Strong coupling: use for stiff close-coupled runs; slower but more implicit.
    - Impulse scheme: use when impulse/momentum conservation or KE drift is the focus. Recommended.
    - Added-mass stab: use for higher mesh counts (ndiv > 3) to preserve stability - deprecated.
================================================
Solver starting - good luck!

Initial state:
  Body  1
    density:          1.000000
    shape axes ratio: (1.000000, 0.999700, 0.999400)
    initial KE ratio: 0.500000
    position:         (-4.000000, 0.000000, 0.000000)
    velocity:         (1.618784, 4.455658, 3.017775)
    angular velocity: (-4.053310, -4.089220, 2.515428)
    orientation:      (w=0.098300, i=0.987011, j=-0.125938, k=0.016887)
  Body  2
    density:          1.000000
    shape axes ratio: (1.000000, 0.999700, 0.999400)
    initial KE ratio: 0.500000
    position:         (4.000000, 0.000000, 0.000000)
    velocity:         (1.618993, 4.456234, 3.018164)
    angular velocity: (1.606328, 3.226710, 5.146500)
    orientation:      (w=0.058957, i=0.086881, j=-0.988681, k=-0.107166)

Preparing first step: implicit scheme, no bootstrap passes required.
First step may take longer than later steps.

First step completed in 0.265 s.

Step   100/2000    5.0% | t 5.000 | ETA 3m 1s | step 0.09s | KE 265.2977 | drift -2.11% | fluid 72.5684 | solid 192.7293
  Impulse FP iterations last/mean/max 7/6.95/7
Step   200/2000   10.0% | t 10.000 | ETA 2m 52s | step 0.10s | KE 260.5605 | drift -3.86% | fluid 72.5712 | solid 187.9893
  Impulse FP iterations last/mean/max 7/6.91/7
Step   300/2000   15.0% | t 15.000 | ETA 2m 42s | step 0.10s | KE 256.8128 | drift -5.24% | fluid 72.5718 | solid 184.2410
  Impulse FP iterations last/mean/max 7/6.88/7
Step   400/2000   20.0% | t 20.000 | ETA 2m 32s | step 0.09s | KE 254.0547 | drift -6.26% | fluid 72.5696 | solid 181.4850
  Impulse FP iterations last/mean/max 6/6.84/7
Step   500/2000   25.0% | t 25.000 | ETA 2m 21s | step 0.10s | KE 252.2874 | drift -6.91% | fluid 72.5717 | solid 179.7157
  Impulse FP iterations last/mean/max 7/6.78/7
Step   600/2000   30.0% | t 30.000 | ETA 2m 11s | step 0.08s | KE 251.5120 | drift -7.20% | fluid 72.5728 | solid 178.9392
  Impulse FP iterations last/mean/max 6/6.72/7
Step   700/2000   35.0% | t 35.000 | ETA 2m 1s | step 0.09s | KE 251.7287 | drift -7.12% | fluid 72.5717 | solid 179.1570
  Impulse FP iterations last/mean/max 7/6.68/7
Step   800/2000   40.0% | t 40.000 | ETA 1m 51s | step 0.09s | KE 252.9386 | drift -6.67% | fluid 72.5711 | solid 180.3675
  Impulse FP iterations last/mean/max 7/6.63/7
Step   900/2000   45.0% | t 45.000 | ETA 1m 41s | step 0.09s | KE 255.1415 | drift -5.86% | fluid 72.5634 | solid 182.5780
  Impulse FP iterations last/mean/max 6/6.61/7
Step  1000/2000   50.0% | t 50.000 | ETA 1m 32s | step 0.10s | KE 258.3371 | drift -4.68% | fluid 72.5690 | solid 185.7681
  Impulse FP iterations last/mean/max 7/6.60/7
Step  1100/2000   55.0% | t 55.000 | ETA 1m 23s | step 0.10s | KE 262.5259 | drift -3.13% | fluid 72.5755 | solid 189.9505
  Impulse FP iterations last/mean/max 7/6.61/7
Step  1200/2000   60.0% | t 60.000 | ETA 1m 14s | step 0.10s | KE 267.7087 | drift -1.22% | fluid 72.5733 | solid 195.1354
  Impulse FP iterations last/mean/max 7/6.62/7
Step  1300/2000   65.0% | t 65.000 | ETA 1m 4s | step 0.10s | KE 273.8863 | drift +1.06% | fluid 72.5717 | solid 201.3145
  Impulse FP iterations last/mean/max 7/6.64/7
Step  1400/2000   70.0% | t 70.000 | ETA 55s | step 0.10s | KE 281.0576 | drift +3.70% | fluid 72.5719 | solid 208.4857
  Impulse FP iterations last/mean/max 7/6.65/7
Step  1500/2000   75.0% | t 75.000 | ETA 46s | step 0.10s | KE 289.2238 | drift +6.72% | fluid 72.5735 | solid 216.6503
  Impulse FP iterations last/mean/max 7/6.68/7
Step  1600/2000   80.0% | t 80.000 | ETA 37s | step 0.09s | KE 298.3872 | drift +10.10% | fluid 72.5746 | solid 225.8126
  Impulse FP iterations last/mean/max 7/6.69/7
Step  1700/2000   85.0% | t 85.000 | ETA 27s | step 0.08s | KE 308.5476 | drift +13.85% | fluid 72.5785 | solid 235.9691
  Impulse FP iterations last/mean/max 7/6.71/7
Step  1800/2000   90.0% | t 90.000 | ETA 18s | step 0.07s | KE 319.7090 | drift +17.96% | fluid 72.5686 | solid 247.1404
  Impulse FP iterations last/mean/max 7/6.73/7
Step  1900/2000   95.0% | t 95.000 | ETA 9s | step 0.06s | KE 331.8698 | drift +22.45% | fluid 72.5683 | solid 259.3016
  Impulse FP iterations last/mean/max 7/6.74/7
Solver finished successfully - good job!
Results saved successfully.

================== Run summary ==================
  Bodies:            2
  Triangles / nodes: 256 / 516
  Timesteps:         2000  (dt = 0.05)
  Simulated time:    0 -> 100
  First-step setup:  0.265 s
  Mean time/step:    0.0890 s  (excl. first step)
  Total wall time:   2m 58s
  Impulse FP iters last/mean/max: 7 / 6.754 / 7
  Approx impulse solves/step:     6.754
  Impulse start cache hits/direct: 1999 / 1
  Impulse global drift P/H:       5.201774e-9 / 2.364353e-2
  Impulse per-body max drift P/H: 8.605133e-9 / 1.488137e-3
  CPU cores:         256 available, 8 Rayon worker thread(s)
  Started:           2026-06-24 02:23:18
  Finished:          2026-06-24 02:26:17
  Output file:       /work/e643/e643/shared/multi_ellip/studies/departing_sphericity_sweep/runs/triaxial/homogeneous/triaxial_homogeneous_eps0p0003_rho1_E0p5_sep8_run01_impulse_noproj/multiple_body_complete.dat
================================================
