
================ Simulation setup ================
  Run label:         /work/e643/e643/shared/multi_ellip/studies/two_body_paper_sweeps/runs/ellipsoid_1_0p8_0p6/ellipsoid_1_0p8_0p6_rho4_E30_sep5_run03_impulse_noproj/
  Started:           2026-06-24 01:33:26
  Input file:        /work/e643/e643/shared/multi_ellip/studies/two_body_paper_sweeps/runs/ellipsoid_1_0p8_0p6/ellipsoid_1_0p8_0p6_rho4_E30_sep5_run03_impulse_noproj/input.txt
  Output file:       /work/e643/e643/shared/multi_ellip/studies/two_body_paper_sweeps/runs/ellipsoid_1_0p8_0p6/ellipsoid_1_0p8_0p6_rho4_E30_sep5_run03_impulse_noproj/multiple_body_complete.dat
  Bodies:            2
  Fluid density:     1
  Mesh:              ndiv 2 -> 256 triangles / 516 nodes
  Simulated time:    0 -> 100  (dt = 0.05, ~2000 steps)
  Output cadence:    every 1 step(s)
  Output rows:       ~2001
  Progress cadence:  every 100 step(s)
  CPU cores:         256 available, 8 Rayon worker thread(s)
  Strong coupling:   disabled
  Impulse scheme:    enabled
  Hamiltonian step:  disabled
  Hamiltonian midpt: disabled
  Variational step:  disabled
  Energy projection: disabled
  Projection particular metric: Euclidean
  Fluid KE gradient: disabled  (eps = 0.001, scale = 1, linear = 1, angular = 1)
  Fluid KE discrete gradient: disabled
  Impulse pair metric correction: disabled  (mode = pair discrete-gradient, cutoff = all pairs, inner/outer = 0/0, eps = 0.001, linear scale = 1, angular scale = 0)
  Impulse metric correction: disabled  (internal load constraint = disabled)
  Impulse variational defect probe: disabled
  Impulse quadratic pressure: disabled  (scale = 1)
  Added-mass stab:   disabled
  Exact BEM geometry: disabled
  Exact singular BEM: disabled
  Legacy singular SLP diagnostic: disabled
  Phi-dot blend:     0 (off)

  Solver guidance:
    - Strong coupling: use for stiff close-coupled runs; slower but more implicit.
    - Impulse scheme: use when impulse/momentum conservation or KE drift is the focus. Recommended.
    - Added-mass stab: use for higher mesh counts (ndiv > 3) to preserve stability - deprecated.
================================================
Solver starting - good luck!

Initial state:
  Body  1
    density:          4.000000
    shape axes ratio: (1.000000, 0.800000, 0.600000)
    initial KE ratio: 30.000000
    position:         (-2.500000, 0.000000, 0.000000)
    velocity:         (0.511489, 0.648583, -0.074593)
    angular velocity: (-1.441978, -0.759512, 6.068135)
    orientation:      (w=-0.721394, i=0.244224, j=-0.644908, k=-0.063551)
  Body  2
    density:          4.000000
    shape axes ratio: (1.000000, 0.800000, 0.600000)
    initial KE ratio: 30.000000
    position:         (2.500000, 0.000000, 0.000000)
    velocity:         (0.468797, 0.594448, -0.068367)
    angular velocity: (-2.964832, -4.623243, -3.051854)
    orientation:      (w=-0.363318, i=0.738908, j=-0.566787, k=0.027704)

Preparing first step: implicit scheme, no bootstrap passes required.
First step may take longer than later steps.

First step completed in 0.269 s.

Step   100/2000    5.0% | t 5.000 | ETA 3m 42s | step 0.13s | KE 264.9168 | drift -0.12% | fluid 5.0780 | solid 259.8388
  Impulse FP iterations last/mean/max 9/8.90/9
Step   200/2000   10.0% | t 10.000 | ETA 3m 37s | step 0.13s | KE 264.5611 | drift -0.26% | fluid 8.2945 | solid 256.2665
  Impulse FP iterations last/mean/max 9/8.84/9
Step   300/2000   15.0% | t 15.000 | ETA 3m 29s | step 0.12s | KE 264.2499 | drift -0.37% | fluid 6.6264 | solid 257.6235
  Impulse FP iterations last/mean/max 8/8.85/9
Step   400/2000   20.0% | t 20.000 | ETA 3m 19s | step 0.13s | KE 263.9629 | drift -0.48% | fluid 6.1194 | solid 257.8435
  Impulse FP iterations last/mean/max 9/8.87/9
Step   500/2000   25.0% | t 25.000 | ETA 3m 8s | step 0.13s | KE 263.6859 | drift -0.59% | fluid 7.7350 | solid 255.9509
  Impulse FP iterations last/mean/max 9/8.86/9
Step   600/2000   30.0% | t 30.000 | ETA 2m 56s | step 0.11s | KE 263.4929 | drift -0.66% | fluid 5.3124 | solid 258.1805
  Impulse FP iterations last/mean/max 8/8.87/9
Step   700/2000   35.0% | t 35.000 | ETA 2m 44s | step 0.12s | KE 263.2951 | drift -0.73% | fluid 8.1756 | solid 255.1195
  Impulse FP iterations last/mean/max 9/8.87/9
Step   800/2000   40.0% | t 40.000 | ETA 2m 31s | step 0.13s | KE 263.1259 | drift -0.80% | fluid 5.0851 | solid 258.0408
  Impulse FP iterations last/mean/max 9/8.88/9
Step   900/2000   45.0% | t 45.000 | ETA 2m 19s | step 0.13s | KE 262.6677 | drift -0.97% | fluid 7.9935 | solid 254.6742
  Impulse FP iterations last/mean/max 9/8.88/9
Step  1000/2000   50.0% | t 50.000 | ETA 2m 7s | step 0.13s | KE 262.4817 | drift -1.04% | fluid 6.7376 | solid 255.7441
  Impulse FP iterations last/mean/max 9/8.88/9
Step  1100/2000   55.0% | t 55.000 | ETA 1m 54s | step 0.13s | KE 261.9778 | drift -1.23% | fluid 6.0708 | solid 255.9070
  Impulse FP iterations last/mean/max 9/8.88/9
Step  1200/2000   60.0% | t 60.000 | ETA 1m 41s | step 0.12s | KE 261.8640 | drift -1.27% | fluid 8.1004 | solid 253.7636
  Impulse FP iterations last/mean/max 8/8.88/9
Step  1300/2000   65.0% | t 65.000 | ETA 1m 29s | step 0.14s | KE 261.5080 | drift -1.41% | fluid 5.5457 | solid 255.9623
  Impulse FP iterations last/mean/max 9/8.88/9
Step  1400/2000   70.0% | t 70.000 | ETA 1m 16s | step 0.13s | KE 261.4283 | drift -1.44% | fluid 6.2478 | solid 255.1805
  Impulse FP iterations last/mean/max 9/8.88/9
Step  1500/2000   75.0% | t 75.000 | ETA 1m 3s | step 0.13s | KE 261.2143 | drift -1.52% | fluid 8.4216 | solid 252.7927
  Impulse FP iterations last/mean/max 9/8.88/9
Step  1600/2000   80.0% | t 80.000 | ETA 51s | step 0.14s | KE 261.0408 | drift -1.58% | fluid 6.1405 | solid 254.9003
  Impulse FP iterations last/mean/max 9/8.88/9
Step  1700/2000   85.0% | t 85.000 | ETA 38s | step 0.13s | KE 260.9172 | drift -1.63% | fluid 5.9986 | solid 254.9186
  Impulse FP iterations last/mean/max 9/8.88/9
Step  1800/2000   90.0% | t 90.000 | ETA 25s | step 0.13s | KE 260.7329 | drift -1.70% | fluid 8.3545 | solid 252.3784
  Impulse FP iterations last/mean/max 9/8.88/9
Step  1900/2000   95.0% | t 95.000 | ETA 12s | step 0.12s | KE 260.6037 | drift -1.75% | fluid 7.3457 | solid 253.2580
  Impulse FP iterations last/mean/max 9/8.87/9
Solver finished successfully - good job!
Results saved successfully.

================== Run summary ==================
  Bodies:            2
  Triangles / nodes: 256 / 516
  Timesteps:         2000  (dt = 0.05)
  Simulated time:    0 -> 100
  First-step setup:  0.269 s
  Mean time/step:    0.1267 s  (excl. first step)
  Total wall time:   4m 13s
  Impulse FP iters last/mean/max: 9 / 8.868 / 9
  Approx impulse solves/step:     8.869
  Impulse start cache hits/direct: 1999 / 1
  Impulse global drift P/H:       4.509809e-9 / 8.994951e-3
  Impulse per-body max drift P/H: 8.166888e-9 / 2.738267e-2
  CPU cores:         256 available, 8 Rayon worker thread(s)
  Started:           2026-06-24 01:33:26
  Finished:          2026-06-24 01:37:40
  Output file:       /work/e643/e643/shared/multi_ellip/studies/two_body_paper_sweeps/runs/ellipsoid_1_0p8_0p6/ellipsoid_1_0p8_0p6_rho4_E30_sep5_run03_impulse_noproj/multiple_body_complete.dat
================================================
