
================ Simulation setup ================
  Run label:         /work/e643/e643/shared/multi_ellip/studies/departing_sphericity_sweep/runs/triaxial/homogeneous/triaxial_homogeneous_eps0p003_rho1_E0p5_sep8_run05_impulse_noproj/
  Started:           2026-06-24 02:26:26
  Input file:        /work/e643/e643/shared/multi_ellip/studies/departing_sphericity_sweep/runs/triaxial/homogeneous/triaxial_homogeneous_eps0p003_rho1_E0p5_sep8_run05_impulse_noproj/input.txt
  Output file:       /work/e643/e643/shared/multi_ellip/studies/departing_sphericity_sweep/runs/triaxial/homogeneous/triaxial_homogeneous_eps0p003_rho1_E0p5_sep8_run05_impulse_noproj/multiple_body_complete.dat
  Bodies:            2
  Fluid density:     1
  Mesh:              ndiv 2 -> 256 triangles / 516 nodes
  Simulated time:    0 -> 100  (dt = 0.05, ~2000 steps)
  Output cadence:    every 1 step(s)
  Output rows:       ~2001
  Progress cadence:  every 100 step(s)
  CPU cores:         256 available, 8 Rayon worker thread(s)
  Strong coupling:   disabled
  Impulse scheme:    enabled
  Hamiltonian step:  disabled
  Hamiltonian midpt: disabled
  Variational step:  disabled
  Energy projection: disabled
  Projection particular metric: Euclidean
  Fluid KE gradient: disabled  (eps = 0.001, scale = 1, linear = 1, angular = 1)
  Fluid KE discrete gradient: disabled
  Impulse pair metric correction: disabled  (mode = pair discrete-gradient, cutoff = all pairs, inner/outer = 0/0, eps = 0.001, linear scale = 1, angular scale = 0)
  Impulse metric correction: disabled  (internal load constraint = disabled)
  Impulse variational defect probe: disabled
  Impulse quadratic pressure: disabled  (scale = 1)
  Added-mass stab:   disabled
  Exact BEM geometry: disabled
  Exact singular BEM: disabled
  Legacy singular SLP diagnostic: disabled
  Phi-dot blend:     0 (off)

  Solver guidance:
    - Strong coupling: use for stiff close-coupled runs; slower but more implicit.
    - Impulse scheme: use when impulse/momentum conservation or KE drift is the focus. Recommended.
    - Added-mass stab: use for higher mesh counts (ndiv > 3) to preserve stability - deprecated.
================================================
Solver starting - good luck!

Initial state:
  Body  1
    density:          1.000000
    shape axes ratio: (1.000000, 0.997009, 0.994027)
    initial KE ratio: 0.500000
    position:         (-4.000000, 0.000000, 0.000000)
    velocity:         (-3.282809, 4.475424, 0.913857)
    angular velocity: (-2.749719, -0.009271, 5.649547)
    orientation:      (w=-0.886933, i=-0.343896, j=0.103090, k=0.290616)
  Body  2
    density:          1.000000
    shape axes ratio: (1.000000, 0.997009, 0.994027)
    initial KE ratio: 0.500000
    position:         (4.000000, 0.000000, 0.000000)
    velocity:         (-3.275011, 4.464794, 0.911687)
    angular velocity: (6.225866, 0.497483, 0.685218)
    orientation:      (w=0.005127, i=-0.057680, j=-0.460655, k=-0.885688)

Preparing first step: implicit scheme, no bootstrap passes required.
First step may take longer than later steps.

First step completed in 0.262 s.

Step   100/2000    5.0% | t 5.000 | ETA 3m 30s | step 0.11s | KE 281.9194 | drift +4.21% | fluid 72.2286 | solid 209.6908
  Impulse FP iterations last/mean/max 8/7.98/8
Step   200/2000   10.0% | t 10.000 | ETA 3m 19s | step 0.11s | KE 296.8644 | drift +9.73% | fluid 72.2574 | solid 224.6070
  Impulse FP iterations last/mean/max 8/7.99/8
Step   300/2000   15.0% | t 15.000 | ETA 3m 9s | step 0.11s | KE 315.1645 | drift +16.50% | fluid 72.2008 | solid 242.9638
  Impulse FP iterations last/mean/max 8/7.99/8
Step   400/2000   20.0% | t 20.000 | ETA 2m 58s | step 0.12s | KE 336.5668 | drift +24.41% | fluid 72.2217 | solid 264.3451
  Impulse FP iterations last/mean/max 8/7.99/8
Step   500/2000   25.0% | t 25.000 | ETA 2m 47s | step 0.10s | KE 360.8074 | drift +33.37% | fluid 72.2471 | solid 288.5603
  Impulse FP iterations last/mean/max 8/7.98/8
Step   600/2000   30.0% | t 30.000 | ETA 2m 36s | step 0.11s | KE 387.6779 | drift +43.30% | fluid 72.1781 | solid 315.4997
  Impulse FP iterations last/mean/max 8/7.99/8
Step   700/2000   35.0% | t 35.000 | ETA 2m 25s | step 0.12s | KE 416.9105 | drift +54.11% | fluid 72.2493 | solid 344.6613
  Impulse FP iterations last/mean/max 8/7.98/8
Step   800/2000   40.0% | t 40.000 | ETA 2m 14s | step 0.11s | KE 448.3659 | drift +65.73% | fluid 72.2614 | solid 376.1045
  Impulse FP iterations last/mean/max 8/7.98/8
Step   900/2000   45.0% | t 45.000 | ETA 2m 2s | step 0.11s | KE 481.8564 | drift +78.11% | fluid 72.2387 | solid 409.6177
  Impulse FP iterations last/mean/max 8/7.98/8
Step  1000/2000   50.0% | t 50.000 | ETA 1m 51s | step 0.12s | KE 517.2483 | drift +91.19% | fluid 72.2077 | solid 445.0406
  Impulse FP iterations last/mean/max 8/7.97/8
Step  1100/2000   55.0% | t 55.000 | ETA 1m 40s | step 0.10s | KE 554.3633 | drift +104.91% | fluid 72.1826 | solid 482.1807
  Impulse FP iterations last/mean/max 7/7.96/8
Step  1200/2000   60.0% | t 60.000 | ETA 1m 29s | step 0.09s | KE 593.0822 | drift +119.23% | fluid 72.1939 | solid 520.8883
  Impulse FP iterations last/mean/max 7/7.94/8
Step  1300/2000   65.0% | t 65.000 | ETA 1m 17s | step 0.10s | KE 633.2567 | drift +134.08% | fluid 72.2426 | solid 561.0142
  Impulse FP iterations last/mean/max 7/7.92/8
Step  1400/2000   70.0% | t 70.000 | ETA 1m 6s | step 0.11s | KE 674.7964 | drift +149.43% | fluid 72.2749 | solid 602.5215
  Impulse FP iterations last/mean/max 8/7.90/8
Step  1500/2000   75.0% | t 75.000 | ETA 55s | step 0.10s | KE 717.7323 | drift +165.30% | fluid 72.1759 | solid 645.5564
  Impulse FP iterations last/mean/max 7/7.87/8
Step  1600/2000   80.0% | t 80.000 | ETA 44s | step 0.10s | KE 761.7103 | drift +181.56% | fluid 72.2382 | solid 689.4721
  Impulse FP iterations last/mean/max 7/7.85/8
Step  1700/2000   85.0% | t 85.000 | ETA 33s | step 0.11s | KE 806.7549 | drift +198.21% | fluid 72.2913 | solid 734.4636
  Impulse FP iterations last/mean/max 8/7.84/8
Step  1800/2000   90.0% | t 90.000 | ETA 21s | step 0.09s | KE 852.9038 | drift +215.27% | fluid 72.2320 | solid 780.6718
  Impulse FP iterations last/mean/max 7/7.82/8
Step  1900/2000   95.0% | t 95.000 | ETA 10s | step 0.08s | KE 899.8607 | drift +232.62% | fluid 72.2778 | solid 827.5829
  Impulse FP iterations last/mean/max 7/7.81/8
Solver finished successfully - good job!
Results saved successfully.

================== Run summary ==================
  Bodies:            2
  Triangles / nodes: 256 / 516
  Timesteps:         2000  (dt = 0.05)
  Simulated time:    0 -> 100
  First-step setup:  0.262 s
  Mean time/step:    0.1079 s  (excl. first step)
  Total wall time:   3m 36s
  Impulse FP iters last/mean/max: 8 / 7.803 / 8
  Approx impulse solves/step:     7.803
  Impulse start cache hits/direct: 1999 / 1
  Impulse global drift P/H:       1.576962e-8 / 5.927902e-2
  Impulse per-body max drift P/H: 1.813970e-8 / 6.875441e-3
  CPU cores:         256 available, 8 Rayon worker thread(s)
  Started:           2026-06-24 02:26:26
  Finished:          2026-06-24 02:30:02
  Output file:       /work/e643/e643/shared/multi_ellip/studies/departing_sphericity_sweep/runs/triaxial/homogeneous/triaxial_homogeneous_eps0p003_rho1_E0p5_sep8_run05_impulse_noproj/multiple_body_complete.dat
================================================
