
================ Simulation setup ================
  Run label:         /work/e643/e643/shared/multi_ellip/studies/departing_sphericity_sweep/runs/spheroid_oblate/homogeneous/spheroid_oblate_homogeneous_eps0p3_rho1_E0p5_sep8_run01_impulse_noproj/
  Started:           2026-06-24 02:30:08
  Input file:        /work/e643/e643/shared/multi_ellip/studies/departing_sphericity_sweep/runs/spheroid_oblate/homogeneous/spheroid_oblate_homogeneous_eps0p3_rho1_E0p5_sep8_run01_impulse_noproj/input.txt
  Output file:       /work/e643/e643/shared/multi_ellip/studies/departing_sphericity_sweep/runs/spheroid_oblate/homogeneous/spheroid_oblate_homogeneous_eps0p3_rho1_E0p5_sep8_run01_impulse_noproj/multiple_body_complete.dat
  Bodies:            2
  Fluid density:     1
  Mesh:              ndiv 2 -> 256 triangles / 516 nodes
  Simulated time:    0 -> 100  (dt = 0.05, ~2000 steps)
  Output cadence:    every 1 step(s)
  Output rows:       ~2001
  Progress cadence:  every 100 step(s)
  CPU cores:         256 available, 8 Rayon worker thread(s)
  Strong coupling:   disabled
  Impulse scheme:    enabled
  Hamiltonian step:  disabled
  Hamiltonian midpt: disabled
  Variational step:  disabled
  Energy projection: disabled
  Projection particular metric: Euclidean
  Fluid KE gradient: disabled  (eps = 0.001, scale = 1, linear = 1, angular = 1)
  Fluid KE discrete gradient: disabled
  Impulse pair metric correction: disabled  (mode = pair discrete-gradient, cutoff = all pairs, inner/outer = 0/0, eps = 0.001, linear scale = 1, angular scale = 0)
  Impulse metric correction: disabled  (internal load constraint = disabled)
  Impulse variational defect probe: disabled
  Impulse quadratic pressure: disabled  (scale = 1)
  Added-mass stab:   disabled
  Exact BEM geometry: disabled
  Exact singular BEM: disabled
  Legacy singular SLP diagnostic: disabled
  Phi-dot blend:     0 (off)

  Solver guidance:
    - Strong coupling: use for stiff close-coupled runs; slower but more implicit.
    - Impulse scheme: use when impulse/momentum conservation or KE drift is the focus. Recommended.
    - Added-mass stab: use for higher mesh counts (ndiv > 3) to preserve stability - deprecated.
================================================
Solver starting - good luck!

Initial state:
  Body  1
    density:          1.000000
    shape axes ratio: (1.000000, 1.000000, 0.455166)
    initial KE ratio: 0.500000
    position:         (-4.000000, 0.000000, 0.000000)
    velocity:         (-4.443363, -3.745644, -0.945715)
    angular velocity: (-5.741786, 1.391606, 2.138633)
    orientation:      (w=0.475378, i=-0.026516, j=-0.026478, k=0.878983)
  Body  2
    density:          1.000000
    shape axes ratio: (1.000000, 1.000000, 0.455166)
    initial KE ratio: 0.500000
    position:         (4.000000, 0.000000, 0.000000)
    velocity:         (-4.809027, -4.053889, -1.023542)
    angular velocity: (2.202671, 4.355282, 3.957041)
    orientation:      (w=-0.398762, i=0.851569, j=-0.265447, k=-0.212973)

Preparing first step: implicit scheme, no bootstrap passes required.
First step may take longer than later steps.

First step completed in 0.347 s.

Step   100/2000    5.0% | t 5.000 | ETA 5m 36s | step 0.20s | KE 316.0439 | drift +0.02% | fluid 92.9849 | solid 223.0590
  Impulse FP iterations last/mean/max 14/12.88/14
Step   200/2000   10.0% | t 10.000 | ETA 5m 18s | step 0.18s | KE 315.9355 | drift -0.01% | fluid 100.2076 | solid 215.7280
  Impulse FP iterations last/mean/max 13/12.88/14
Step   300/2000   15.0% | t 15.000 | ETA 5m 0s | step 0.17s | KE 316.4732 | drift +0.16% | fluid 90.3844 | solid 226.0888
  Impulse FP iterations last/mean/max 13/12.87/14
Step   400/2000   20.0% | t 20.000 | ETA 4m 43s | step 0.17s | KE 316.5177 | drift +0.17% | fluid 94.2977 | solid 222.2200
  Impulse FP iterations last/mean/max 13/12.86/14
Step   500/2000   25.0% | t 25.000 | ETA 4m 25s | step 0.17s | KE 317.1391 | drift +0.37% | fluid 88.6746 | solid 228.4646
  Impulse FP iterations last/mean/max 13/12.86/14
Step   600/2000   30.0% | t 30.000 | ETA 4m 7s | step 0.17s | KE 316.9262 | drift +0.30% | fluid 84.6366 | solid 232.2896
  Impulse FP iterations last/mean/max 12/12.87/14
Step   700/2000   35.0% | t 35.000 | ETA 3m 50s | step 0.18s | KE 315.5228 | drift -0.14% | fluid 104.8502 | solid 210.6726
  Impulse FP iterations last/mean/max 13/12.87/15
Step   800/2000   40.0% | t 40.000 | ETA 3m 32s | step 0.18s | KE 315.0971 | drift -0.28% | fluid 109.3739 | solid 205.7232
  Impulse FP iterations last/mean/max 13/12.86/15
Step   900/2000   45.0% | t 45.000 | ETA 3m 14s | step 0.17s | KE 317.1180 | drift +0.36% | fluid 86.7801 | solid 230.3379
  Impulse FP iterations last/mean/max 12/12.86/15
Step  1000/2000   50.0% | t 50.000 | ETA 2m 56s | step 0.16s | KE 317.4107 | drift +0.46% | fluid 81.3511 | solid 236.0596
  Impulse FP iterations last/mean/max 12/12.87/15
Step  1100/2000   55.0% | t 55.000 | ETA 2m 39s | step 0.18s | KE 316.1075 | drift +0.04% | fluid 99.0903 | solid 217.0172
  Impulse FP iterations last/mean/max 13/12.86/15
Step  1200/2000   60.0% | t 60.000 | ETA 2m 21s | step 0.15s | KE 315.2141 | drift -0.24% | fluid 108.4347 | solid 206.7794
  Impulse FP iterations last/mean/max 13/12.87/15
Step  1300/2000   65.0% | t 65.000 | ETA 2m 2s | step 0.17s | KE 316.5615 | drift +0.19% | fluid 88.5120 | solid 228.0495
  Impulse FP iterations last/mean/max 13/12.87/15
Step  1400/2000   70.0% | t 70.000 | ETA 1m 44s | step 0.16s | KE 317.3372 | drift +0.43% | fluid 85.9258 | solid 231.4115
  Impulse FP iterations last/mean/max 12/12.87/15
Step  1500/2000   75.0% | t 75.000 | ETA 1m 26s | step 0.13s | KE 316.6505 | drift +0.22% | fluid 91.2810 | solid 225.3695
  Impulse FP iterations last/mean/max 13/12.88/15
Step  1600/2000   80.0% | t 80.000 | ETA 1m 8s | step 0.14s | KE 316.7110 | drift +0.23% | fluid 89.9069 | solid 226.8041
  Impulse FP iterations last/mean/max 13/12.87/15
Step  1700/2000   85.0% | t 85.000 | ETA 50s | step 0.13s | KE 315.8230 | drift -0.05% | fluid 100.6077 | solid 215.2154
  Impulse FP iterations last/mean/max 13/12.87/15
Step  1800/2000   90.0% | t 90.000 | ETA 33s | step 0.13s | KE 316.0321 | drift +0.02% | fluid 95.1337 | solid 220.8984
  Impulse FP iterations last/mean/max 13/12.87/15
Step  1900/2000   95.0% | t 95.000 | ETA 16s | step 0.14s | KE 316.4141 | drift +0.14% | fluid 99.0798 | solid 217.3343
  Impulse FP iterations last/mean/max 13/12.87/15
Solver finished successfully - good job!
Results saved successfully.

================== Run summary ==================
  Bodies:            2
  Triangles / nodes: 256 / 516
  Timesteps:         2000  (dt = 0.05)
  Simulated time:    0 -> 100
  First-step setup:  0.347 s
  Mean time/step:    0.1640 s  (excl. first step)
  Total wall time:   5m 28s
  Impulse FP iters last/mean/max: 12 / 12.876 / 15
  Approx impulse solves/step:     12.877
  Impulse start cache hits/direct: 1999 / 1
  Impulse global drift P/H:       2.567634e-9 / 2.359112e-2
  Impulse per-body max drift P/H: 3.957119e-9 / 3.938686e-3
  CPU cores:         256 available, 8 Rayon worker thread(s)
  Started:           2026-06-24 02:30:08
  Finished:          2026-06-24 02:35:37
  Output file:       /work/e643/e643/shared/multi_ellip/studies/departing_sphericity_sweep/runs/spheroid_oblate/homogeneous/spheroid_oblate_homogeneous_eps0p3_rho1_E0p5_sep8_run01_impulse_noproj/multiple_body_complete.dat
================================================
