
================ Simulation setup ================
  Run label:         /work/e643/e643/shared/multi_ellip/studies/two_body_paper_sweeps/runs/spheroid_1_0p7_0p7/spheroid_1_0p7_0p7_rho1_E1p5_sep8_run05_impulse_noproj/
  Started:           2026-06-24 01:34:39
  Input file:        /work/e643/e643/shared/multi_ellip/studies/two_body_paper_sweeps/runs/spheroid_1_0p7_0p7/spheroid_1_0p7_0p7_rho1_E1p5_sep8_run05_impulse_noproj/input.txt
  Output file:       /work/e643/e643/shared/multi_ellip/studies/two_body_paper_sweeps/runs/spheroid_1_0p7_0p7/spheroid_1_0p7_0p7_rho1_E1p5_sep8_run05_impulse_noproj/multiple_body_complete.dat
  Bodies:            2
  Fluid density:     1
  Mesh:              ndiv 2 -> 256 triangles / 516 nodes
  Simulated time:    0 -> 100  (dt = 0.05, ~2000 steps)
  Output cadence:    every 1 step(s)
  Output rows:       ~2001
  Progress cadence:  every 100 step(s)
  CPU cores:         256 available, 8 Rayon worker thread(s)
  Strong coupling:   disabled
  Impulse scheme:    enabled
  Hamiltonian step:  disabled
  Hamiltonian midpt: disabled
  Variational step:  disabled
  Energy projection: disabled
  Projection particular metric: Euclidean
  Fluid KE gradient: disabled  (eps = 0.001, scale = 1, linear = 1, angular = 1)
  Fluid KE discrete gradient: disabled
  Impulse pair metric correction: disabled  (mode = pair discrete-gradient, cutoff = all pairs, inner/outer = 0/0, eps = 0.001, linear scale = 1, angular scale = 0)
  Impulse metric correction: disabled  (internal load constraint = disabled)
  Impulse variational defect probe: disabled
  Impulse quadratic pressure: disabled  (scale = 1)
  Added-mass stab:   disabled
  Exact BEM geometry: disabled
  Exact singular BEM: disabled
  Legacy singular SLP diagnostic: disabled
  Phi-dot blend:     0 (off)

  Solver guidance:
    - Strong coupling: use for stiff close-coupled runs; slower but more implicit.
    - Impulse scheme: use when impulse/momentum conservation or KE drift is the focus. Recommended.
    - Added-mass stab: use for higher mesh counts (ndiv > 3) to preserve stability - deprecated.
================================================
Solver starting - good luck!

Initial state:
  Body  1
    density:          1.000000
    shape axes ratio: (1.000000, 0.700000, 0.700000)
    initial KE ratio: 1.500000
    position:         (-4.000000, 0.000000, 0.000000)
    velocity:         (1.583077, -2.606397, -0.987651)
    angular velocity: (4.628652, -3.977227, 1.495213)
    orientation:      (w=-0.341064, i=0.773712, j=-0.044298, k=0.532055)
  Body  2
    density:          1.000000
    shape axes ratio: (1.000000, 0.700000, 0.700000)
    initial KE ratio: 1.500000
    position:         (4.000000, 0.000000, 0.000000)
    velocity:         (1.514985, -2.494289, -0.945170)
    angular velocity: (-5.415690, 0.908322, -3.053468)
    orientation:      (w=0.572533, i=0.274227, j=0.748419, k=-0.192026)

Preparing first step: implicit scheme, no bootstrap passes required.
First step may take longer than later steps.

First step completed in 0.262 s.

Step   100/2000    5.0% | t 5.000 | ETA 3m 48s | step 0.12s | KE 135.2538 | drift -0.68% | fluid 28.5415 | solid 106.7123
  Impulse FP iterations last/mean/max 10/9.80/10
Step   200/2000   10.0% | t 10.000 | ETA 3m 47s | step 0.14s | KE 133.4199 | drift -2.03% | fluid 28.4679 | solid 104.9520
  Impulse FP iterations last/mean/max 10/9.88/10
Step   300/2000   15.0% | t 15.000 | ETA 3m 41s | step 0.14s | KE 131.7273 | drift -3.27% | fluid 29.5112 | solid 102.2161
  Impulse FP iterations last/mean/max 10/9.87/10
Step   400/2000   20.0% | t 20.000 | ETA 3m 32s | step 0.14s | KE 130.6748 | drift -4.04% | fluid 26.5093 | solid 104.1655
  Impulse FP iterations last/mean/max 10/9.83/10
Step   500/2000   25.0% | t 25.000 | ETA 3m 21s | step 0.14s | KE 130.2297 | drift -4.37% | fluid 26.7551 | solid 103.4746
  Impulse FP iterations last/mean/max 10/9.85/10
Step   600/2000   30.0% | t 30.000 | ETA 3m 10s | step 0.14s | KE 129.8798 | drift -4.63% | fluid 27.6209 | solid 102.2589
  Impulse FP iterations last/mean/max 10/9.86/10
Step   700/2000   35.0% | t 35.000 | ETA 2m 57s | step 0.13s | KE 129.6876 | drift -4.77% | fluid 29.3274 | solid 100.3603
  Impulse FP iterations last/mean/max 9/9.83/10
Step   800/2000   40.0% | t 40.000 | ETA 2m 43s | step 0.14s | KE 129.5652 | drift -4.86% | fluid 25.8006 | solid 103.7645
  Impulse FP iterations last/mean/max 10/9.78/10
Step   900/2000   45.0% | t 45.000 | ETA 2m 29s | step 0.14s | KE 129.5323 | drift -4.88% | fluid 27.7669 | solid 101.7654
  Impulse FP iterations last/mean/max 10/9.75/10
Step  1000/2000   50.0% | t 50.000 | ETA 2m 16s | step 0.13s | KE 129.6864 | drift -4.77% | fluid 28.4125 | solid 101.2739
  Impulse FP iterations last/mean/max 9/9.74/10
Step  1100/2000   55.0% | t 55.000 | ETA 2m 3s | step 0.14s | KE 129.7120 | drift -4.75% | fluid 27.9554 | solid 101.7566
  Impulse FP iterations last/mean/max 10/9.74/10
Step  1200/2000   60.0% | t 60.000 | ETA 1m 49s | step 0.13s | KE 129.8695 | drift -4.63% | fluid 26.5271 | solid 103.3424
  Impulse FP iterations last/mean/max 10/9.76/10
Step  1300/2000   65.0% | t 65.000 | ETA 1m 36s | step 0.13s | KE 129.8019 | drift -4.68% | fluid 27.5958 | solid 102.2061
  Impulse FP iterations last/mean/max 9/9.76/10
Step  1400/2000   70.0% | t 70.000 | ETA 1m 22s | step 0.13s | KE 129.8838 | drift -4.62% | fluid 29.1674 | solid 100.7164
  Impulse FP iterations last/mean/max 9/9.74/10
Step  1500/2000   75.0% | t 75.000 | ETA 1m 8s | step 0.14s | KE 129.8316 | drift -4.66% | fluid 26.3154 | solid 103.5162
  Impulse FP iterations last/mean/max 10/9.72/10
Step  1600/2000   80.0% | t 80.000 | ETA 54s | step 0.14s | KE 129.8554 | drift -4.64% | fluid 26.9870 | solid 102.8684
  Impulse FP iterations last/mean/max 10/9.71/10
Step  1700/2000   85.0% | t 85.000 | ETA 41s | step 0.14s | KE 129.8261 | drift -4.67% | fluid 28.5506 | solid 101.2754
  Impulse FP iterations last/mean/max 10/9.71/10
Step  1800/2000   90.0% | t 90.000 | ETA 27s | step 0.13s | KE 129.8113 | drift -4.68% | fluid 28.5750 | solid 101.2363
  Impulse FP iterations last/mean/max 9/9.72/10
Step  1900/2000   95.0% | t 95.000 | ETA 13s | step 0.14s | KE 129.8682 | drift -4.64% | fluid 26.7598 | solid 103.1084
  Impulse FP iterations last/mean/max 10/9.72/10
Solver finished successfully - good job!
Results saved successfully.

================== Run summary ==================
  Bodies:            2
  Triangles / nodes: 256 / 516
  Timesteps:         2000  (dt = 0.05)
  Simulated time:    0 -> 100
  First-step setup:  0.262 s
  Mean time/step:    0.1370 s  (excl. first step)
  Total wall time:   4m 34s
  Impulse FP iters last/mean/max: 10 / 9.714 / 10
  Approx impulse solves/step:     9.715
  Impulse start cache hits/direct: 1999 / 1
  Impulse global drift P/H:       1.112333e-8 / 7.428590e-3
  Impulse per-body max drift P/H: 2.043475e-8 / 1.009101e-3
  CPU cores:         256 available, 8 Rayon worker thread(s)
  Started:           2026-06-24 01:34:39
  Finished:          2026-06-24 01:39:14
  Output file:       /work/e643/e643/shared/multi_ellip/studies/two_body_paper_sweeps/runs/spheroid_1_0p7_0p7/spheroid_1_0p7_0p7_rho1_E1p5_sep8_run05_impulse_noproj/multiple_body_complete.dat
================================================
