
================ Simulation setup ================
  Run label:         /work/e643/e643/shared/multi_ellip/studies/two_body_paper_sweeps/runs/spheroid_1_0p7_0p7/spheroid_1_0p7_0p7_rho0p3_E0p55_sep11_run02_impulse_noproj/
  Started:           2026-06-22 19:39:27
  Input file:        /work/e643/e643/shared/multi_ellip/studies/two_body_paper_sweeps/runs/spheroid_1_0p7_0p7/spheroid_1_0p7_0p7_rho0p3_E0p55_sep11_run02_impulse_noproj/input.txt
  Output file:       /work/e643/e643/shared/multi_ellip/studies/two_body_paper_sweeps/runs/spheroid_1_0p7_0p7/spheroid_1_0p7_0p7_rho0p3_E0p55_sep11_run02_impulse_noproj/multiple_body_complete.dat
  Bodies:            2
  Fluid density:     1
  Mesh:              ndiv 2 -> 256 triangles / 516 nodes
  Simulated time:    0 -> 100  (dt = 0.05, ~2000 steps)
  Output cadence:    every 1 step(s)
  Output rows:       ~2001
  Progress cadence:  every 100 step(s)
  CPU cores:         256 available, 8 Rayon worker thread(s)
  Strong coupling:   disabled
  Impulse scheme:    enabled
  Hamiltonian step:  disabled
  Hamiltonian midpt: disabled
  Variational step:  disabled
  Energy projection: disabled
  Projection particular metric: Euclidean
  Fluid KE gradient: disabled  (eps = 0.001, scale = 1, linear = 1, angular = 1)
  Fluid KE discrete gradient: disabled
  Impulse pair metric correction: disabled  (mode = pair discrete-gradient, cutoff = all pairs, inner/outer = 0/0, eps = 0.001, linear scale = 1, angular scale = 0)
  Impulse metric correction: disabled  (internal load constraint = disabled)
  Impulse variational defect probe: disabled
  Impulse quadratic pressure: disabled  (scale = 1)
  Added-mass stab:   disabled
  Exact BEM geometry: disabled
  Exact singular BEM: disabled
  Legacy singular SLP diagnostic: disabled
  Phi-dot blend:     0 (off)

  Solver guidance:
    - Strong coupling: use for stiff close-coupled runs; slower but more implicit.
    - Impulse scheme: use when impulse/momentum conservation or KE drift is the focus. Recommended.
    - Added-mass stab: use for higher mesh counts (ndiv > 3) to preserve stability - deprecated.
================================================
Solver starting - good luck!

Initial state:
  Body  1
    density:          0.300000
    shape axes ratio: (1.000000, 0.700000, 0.700000)
    initial KE ratio: 0.550000
    position:         (-5.500000, 0.000000, 0.000000)
    velocity:         (0.405954, -5.074230, 2.895113)
    angular velocity: (-0.636360, 3.853796, 4.921557)
    orientation:      (w=0.577350, i=0.577350, j=0.577350, k=0.000000)
  Body  2
    density:          0.300000
    shape axes ratio: (1.000000, 0.700000, 0.700000)
    initial KE ratio: 0.550000
    position:         (5.500000, 0.000000, 0.000000)
    velocity:         (0.345586, -4.319664, 2.464594)
    angular velocity: (5.660919, -1.971645, 1.882824)
    orientation:      (w=0.577350, i=-0.577350, j=0.000000, k=0.577350)

Preparing first step: implicit scheme, no bootstrap passes required.
First step may take longer than later steps.

First step completed in 0.396 s.

Step   100/2000    5.0% | t 5.000 | ETA 5m 39s | step 0.17s | KE 118.9644 | drift -0.49% | fluid 58.5680 | solid 60.3964
  Impulse FP iterations last/mean/max 12/12.48/14
Step   200/2000   10.0% | t 10.000 | ETA 5m 18s | step 0.18s | KE 118.8576 | drift -0.58% | fluid 58.4136 | solid 60.4440
  Impulse FP iterations last/mean/max 13/12.36/14
Step   300/2000   15.0% | t 15.000 | ETA 5m 1s | step 0.18s | KE 119.4791 | drift -0.06% | fluid 58.6498 | solid 60.8293
  Impulse FP iterations last/mean/max 13/12.37/14
Step   400/2000   20.0% | t 20.000 | ETA 4m 43s | step 0.18s | KE 119.0087 | drift -0.45% | fluid 58.4097 | solid 60.5990
  Impulse FP iterations last/mean/max 13/12.36/14
Step   500/2000   25.0% | t 25.000 | ETA 4m 24s | step 0.19s | KE 119.2695 | drift -0.23% | fluid 58.6408 | solid 60.6287
  Impulse FP iterations last/mean/max 13/12.36/14
Step   600/2000   30.0% | t 30.000 | ETA 4m 5s | step 0.17s | KE 118.7041 | drift -0.70% | fluid 58.2892 | solid 60.4149
  Impulse FP iterations last/mean/max 12/12.35/14
Step   700/2000   35.0% | t 35.000 | ETA 3m 48s | step 0.17s | KE 119.4162 | drift -0.11% | fluid 58.7056 | solid 60.7106
  Impulse FP iterations last/mean/max 12/12.35/14
Step   800/2000   40.0% | t 40.000 | ETA 3m 30s | step 0.17s | KE 119.2402 | drift -0.26% | fluid 58.6216 | solid 60.6185
  Impulse FP iterations last/mean/max 12/12.35/14
Step   900/2000   45.0% | t 45.000 | ETA 3m 12s | step 0.18s | KE 118.7840 | drift -0.64% | fluid 58.3259 | solid 60.4581
  Impulse FP iterations last/mean/max 13/12.34/14
Step  1000/2000   50.0% | t 50.000 | ETA 2m 54s | step 0.17s | KE 119.5466 | drift +0.00% | fluid 58.7384 | solid 60.8082
  Impulse FP iterations last/mean/max 12/12.34/14
Step  1100/2000   55.0% | t 55.000 | ETA 2m 37s | step 0.18s | KE 118.8343 | drift -0.60% | fluid 58.3437 | solid 60.4906
  Impulse FP iterations last/mean/max 13/12.35/14
Step  1200/2000   60.0% | t 60.000 | ETA 2m 19s | step 0.19s | KE 119.1310 | drift -0.35% | fluid 58.5742 | solid 60.5569
  Impulse FP iterations last/mean/max 13/12.34/14
Step  1300/2000   65.0% | t 65.000 | ETA 2m 1s | step 0.17s | KE 119.0360 | drift -0.43% | fluid 58.4707 | solid 60.5653
  Impulse FP iterations last/mean/max 12/12.33/14
Step  1400/2000   70.0% | t 70.000 | ETA 1m 44s | step 0.16s | KE 119.2732 | drift -0.23% | fluid 58.6142 | solid 60.6590
  Impulse FP iterations last/mean/max 12/12.33/14
Step  1500/2000   75.0% | t 75.000 | ETA 1m 26s | step 0.15s | KE 119.1688 | drift -0.32% | fluid 58.5901 | solid 60.5787
  Impulse FP iterations last/mean/max 13/12.34/14
Step  1600/2000   80.0% | t 80.000 | ETA 1m 8s | step 0.12s | KE 118.7553 | drift -0.66% | fluid 58.3006 | solid 60.4547
  Impulse FP iterations last/mean/max 11/12.33/14
Step  1700/2000   85.0% | t 85.000 | ETA 50s | step 0.14s | KE 119.6042 | drift +0.05% | fluid 58.7778 | solid 60.8264
  Impulse FP iterations last/mean/max 12/12.34/14
Step  1800/2000   90.0% | t 90.000 | ETA 33s | step 0.14s | KE 118.7940 | drift -0.63% | fluid 58.3214 | solid 60.4726
  Impulse FP iterations last/mean/max 12/12.34/14
Step  1900/2000   95.0% | t 95.000 | ETA 16s | step 0.13s | KE 119.1469 | drift -0.33% | fluid 58.5750 | solid 60.5719
  Impulse FP iterations last/mean/max 13/12.34/14
Solver finished successfully - good job!
Results saved successfully.

================== Run summary ==================
  Bodies:            2
  Triangles / nodes: 256 / 516
  Timesteps:         2000  (dt = 0.05)
  Simulated time:    0 -> 100
  First-step setup:  0.396 s
  Mean time/step:    0.1633 s  (excl. first step)
  Total wall time:   5m 26s
  Impulse FP iters last/mean/max: 12 / 12.336 / 14
  Approx impulse solves/step:     12.337
  Impulse start cache hits/direct: 1999 / 1
  Impulse global drift P/H:       1.918127e-8 / 7.428041e-3
  Impulse per-body max drift P/H: 2.487273e-8 / 1.126903e-3
  CPU cores:         256 available, 8 Rayon worker thread(s)
  Started:           2026-06-22 19:39:27
  Finished:          2026-06-22 19:44:55
  Output file:       /work/e643/e643/shared/multi_ellip/studies/two_body_paper_sweeps/runs/spheroid_1_0p7_0p7/spheroid_1_0p7_0p7_rho0p3_E0p55_sep11_run02_impulse_noproj/multiple_body_complete.dat
================================================
