
================ Simulation setup ================
  Run label:         /work/e643/e643/shared/multi_ellip/studies/two_body_paper_sweeps/runs/spheroid_1_0p7_0p7/spheroid_1_0p7_0p7_rho0p1_E4_sep3_run04_impulse_noproj/
  Started:           2026-06-24 02:06:36
  Input file:        /work/e643/e643/shared/multi_ellip/studies/two_body_paper_sweeps/runs/spheroid_1_0p7_0p7/spheroid_1_0p7_0p7_rho0p1_E4_sep3_run04_impulse_noproj/input.txt
  Output file:       /work/e643/e643/shared/multi_ellip/studies/two_body_paper_sweeps/runs/spheroid_1_0p7_0p7/spheroid_1_0p7_0p7_rho0p1_E4_sep3_run04_impulse_noproj/multiple_body_complete.dat
  Bodies:            2
  Fluid density:     1
  Mesh:              ndiv 2 -> 256 triangles / 516 nodes
  Simulated time:    0 -> 100  (dt = 0.05, ~2000 steps)
  Output cadence:    every 1 step(s)
  Output rows:       ~2001
  Progress cadence:  every 100 step(s)
  CPU cores:         256 available, 8 Rayon worker thread(s)
  Strong coupling:   disabled
  Impulse scheme:    enabled
  Hamiltonian step:  disabled
  Hamiltonian midpt: disabled
  Variational step:  disabled
  Energy projection: disabled
  Projection particular metric: Euclidean
  Fluid KE gradient: disabled  (eps = 0.001, scale = 1, linear = 1, angular = 1)
  Fluid KE discrete gradient: disabled
  Impulse pair metric correction: disabled  (mode = pair discrete-gradient, cutoff = all pairs, inner/outer = 0/0, eps = 0.001, linear scale = 1, angular scale = 0)
  Impulse metric correction: disabled  (internal load constraint = disabled)
  Impulse variational defect probe: disabled
  Impulse quadratic pressure: disabled  (scale = 1)
  Added-mass stab:   disabled
  Exact BEM geometry: disabled
  Exact singular BEM: disabled
  Legacy singular SLP diagnostic: disabled
  Phi-dot blend:     0 (off)

  Solver guidance:
    - Strong coupling: use for stiff close-coupled runs; slower but more implicit.
    - Impulse scheme: use when impulse/momentum conservation or KE drift is the focus. Recommended.
    - Added-mass stab: use for higher mesh counts (ndiv > 3) to preserve stability - deprecated.
================================================
Solver starting - good luck!

Initial state:
  Body  1
    density:          0.100000
    shape axes ratio: (1.000000, 0.700000, 0.700000)
    initial KE ratio: 4.000000
    position:         (-1.500000, 0.000000, 0.000000)
    velocity:         (1.968953, 0.859970, 0.315203)
    angular velocity: (0.632259, -5.981724, 1.815941)
    orientation:      (w=-0.203435, i=-0.531247, j=-0.822426, k=-0.002571)
  Body  2
    density:          0.100000
    shape axes ratio: (1.000000, 0.700000, 0.700000)
    initial KE ratio: 4.000000
    position:         (1.500000, 0.000000, 0.000000)
    velocity:         (1.907456, 0.833111, 0.305359)
    angular velocity: (-2.732664, 5.654642, 0.189698)
    orientation:      (w=-0.412676, i=-0.415741, j=-0.774956, k=-0.237279)

Preparing first step: implicit scheme, no bootstrap passes required.
First step may take longer than later steps.

First step completed in 0.308 s.

Step   100/2000    5.0% | t 5.000 | ETA 7m 28s | step 0.28s | KE 48.3305 | drift +136.43% | fluid 14.1051 | solid 34.2254
  Impulse FP iterations last/mean/max 18/16.61/18
Step   200/2000   10.0% | t 10.000 | ETA 7m 30s | step 0.29s | KE 128.1504 | drift +526.92% | fluid 15.6975 | solid 112.4529
  Impulse FP iterations last/mean/max 20/17.36/20
Step   300/2000   15.0% | t 15.000 | ETA 7m 15s | step 0.26s | KE 270.9229 | drift +1225.36% | fluid 16.8575 | solid 254.0654
  Impulse FP iterations last/mean/max 18/17.70/21
Step   400/2000   20.0% | t 20.000 | ETA 6m 53s | step 0.26s | KE 437.4249 | drift +2039.90% | fluid 17.5910 | solid 419.8339
  Impulse FP iterations last/mean/max 18/17.78/21
Step   500/2000   25.0% | t 25.000 | ETA 6m 25s | step 0.27s | KE 554.8906 | drift +2614.55% | fluid 16.5093 | solid 538.3813
  Impulse FP iterations last/mean/max 18/17.68/21
Step   600/2000   30.0% | t 30.000 | ETA 5m 58s | step 0.24s | KE 592.3721 | drift +2797.91% | fluid 12.6603 | solid 579.7118
  Impulse FP iterations last/mean/max 17/17.58/21
Step   700/2000   35.0% | t 35.000 | ETA 5m 30s | step 0.25s | KE 573.5326 | drift +2705.74% | fluid 11.6004 | solid 561.9322
  Impulse FP iterations last/mean/max 17/17.45/21
Step   800/2000   40.0% | t 40.000 | ETA 5m 3s | step 0.25s | KE 504.0060 | drift +2365.62% | fluid 11.5492 | solid 492.4569
  Impulse FP iterations last/mean/max 16/17.33/21
Step   900/2000   45.0% | t 45.000 | ETA 4m 36s | step 0.27s | KE 380.0307 | drift +1759.12% | fluid 11.7854 | solid 368.2452
  Impulse FP iterations last/mean/max 18/17.24/21
Step  1000/2000   50.0% | t 50.000 | ETA 4m 10s | step 0.22s | KE 245.5015 | drift +1101.00% | fluid 11.7697 | solid 233.7318
  Impulse FP iterations last/mean/max 15/17.16/21
Step  1100/2000   55.0% | t 55.000 | ETA 3m 44s | step 0.23s | KE 151.0350 | drift +638.87% | fluid 11.8978 | solid 139.1372
  Impulse FP iterations last/mean/max 16/17.05/21
Step  1200/2000   60.0% | t 60.000 | ETA 3m 17s | step 0.22s | KE 101.8332 | drift +398.17% | fluid 11.9132 | solid 89.9200
  Impulse FP iterations last/mean/max 15/16.92/21
Step  1300/2000   65.0% | t 65.000 | ETA 2m 51s | step 0.22s | KE 80.2117 | drift +292.40% | fluid 11.8339 | solid 68.3778
  Impulse FP iterations last/mean/max 15/16.76/21
Step  1400/2000   70.0% | t 70.000 | ETA 2m 25s | step 0.21s | KE 70.1321 | drift +243.09% | fluid 11.8136 | solid 58.3185
  Impulse FP iterations last/mean/max 15/16.60/21
Step  1500/2000   75.0% | t 75.000 | ETA 2m 0s | step 0.24s | KE 64.8736 | drift +217.36% | fluid 11.7683 | solid 53.1053
  Impulse FP iterations last/mean/max 16/16.48/21
Step  1600/2000   80.0% | t 80.000 | ETA 1m 35s | step 0.23s | KE 62.1594 | drift +204.09% | fluid 11.7998 | solid 50.3596
  Impulse FP iterations last/mean/max 16/16.37/21
Step  1700/2000   85.0% | t 85.000 | ETA 1m 11s | step 0.20s | KE 60.4013 | drift +195.49% | fluid 11.7374 | solid 48.6640
  Impulse FP iterations last/mean/max 14/16.27/21
Step  1800/2000   90.0% | t 90.000 | ETA 46s | step 0.17s | KE 59.2298 | drift +189.75% | fluid 11.7066 | solid 47.5233
  Impulse FP iterations last/mean/max 14/16.18/21
Step  1900/2000   95.0% | t 95.000 | ETA 23s | step 0.17s | KE 58.4738 | drift +186.06% | fluid 11.6879 | solid 46.7858
  Impulse FP iterations last/mean/max 15/16.10/21
Solver finished successfully - good job!
Results saved successfully.

================== Run summary ==================
  Bodies:            2
  Triangles / nodes: 256 / 516
  Timesteps:         2000  (dt = 0.05)
  Simulated time:    0 -> 100
  First-step setup:  0.308 s
  Mean time/step:    0.2267 s  (excl. first step)
  Total wall time:   7m 33s
  Impulse FP iters last/mean/max: 16 / 16.032 / 21
  Approx impulse solves/step:     16.032
  Impulse start cache hits/direct: 1999 / 1
  Impulse global drift P/H:       3.400275e-8 / 6.918064e0
  Impulse per-body max drift P/H: 5.854942e-8 / 1.522310e0
  CPU cores:         256 available, 8 Rayon worker thread(s)
  Started:           2026-06-24 02:06:36
  Finished:          2026-06-24 02:14:10
  Output file:       /work/e643/e643/shared/multi_ellip/studies/two_body_paper_sweeps/runs/spheroid_1_0p7_0p7/spheroid_1_0p7_0p7_rho0p1_E4_sep3_run04_impulse_noproj/multiple_body_complete.dat
================================================
