
================ Simulation setup ================
  Run label:         /work/e643/e643/shared/multi_ellip/studies/two_body_paper_sweeps/runs/spheroid_1_0p7_0p7/spheroid_1_0p7_0p7_rho0p3_E4_sep3_run01_impulse_noproj/
  Started:           2026-06-22 19:45:43
  Input file:        /work/e643/e643/shared/multi_ellip/studies/two_body_paper_sweeps/runs/spheroid_1_0p7_0p7/spheroid_1_0p7_0p7_rho0p3_E4_sep3_run01_impulse_noproj/input.txt
  Output file:       /work/e643/e643/shared/multi_ellip/studies/two_body_paper_sweeps/runs/spheroid_1_0p7_0p7/spheroid_1_0p7_0p7_rho0p3_E4_sep3_run01_impulse_noproj/multiple_body_complete.dat
  Bodies:            2
  Fluid density:     1
  Mesh:              ndiv 2 -> 256 triangles / 516 nodes
  Simulated time:    0 -> 100  (dt = 0.05, ~2000 steps)
  Output cadence:    every 1 step(s)
  Output rows:       ~2001
  Progress cadence:  every 100 step(s)
  CPU cores:         256 available, 8 Rayon worker thread(s)
  Strong coupling:   disabled
  Impulse scheme:    enabled
  Hamiltonian step:  disabled
  Hamiltonian midpt: disabled
  Variational step:  disabled
  Energy projection: disabled
  Projection particular metric: Euclidean
  Fluid KE gradient: disabled  (eps = 0.001, scale = 1, linear = 1, angular = 1)
  Fluid KE discrete gradient: disabled
  Impulse pair metric correction: disabled  (mode = pair discrete-gradient, cutoff = all pairs, inner/outer = 0/0, eps = 0.001, linear scale = 1, angular scale = 0)
  Impulse metric correction: disabled  (internal load constraint = disabled)
  Impulse variational defect probe: disabled
  Impulse quadratic pressure: disabled  (scale = 1)
  Added-mass stab:   disabled
  Exact BEM geometry: disabled
  Exact singular BEM: disabled
  Legacy singular SLP diagnostic: disabled
  Phi-dot blend:     0 (off)

  Solver guidance:
    - Strong coupling: use for stiff close-coupled runs; slower but more implicit.
    - Impulse scheme: use when impulse/momentum conservation or KE drift is the focus. Recommended.
    - Added-mass stab: use for higher mesh counts (ndiv > 3) to preserve stability - deprecated.
================================================
Solver starting - good luck!

Initial state:
  Body  1
    density:          0.300000
    shape axes ratio: (1.000000, 0.700000, 0.700000)
    initial KE ratio: 4.000000
    position:         (-1.500000, 0.000000, 0.000000)
    velocity:         (1.806440, 1.116959, 0.122927)
    angular velocity: (-2.241552, 4.397190, -3.888262)
    orientation:      (w=0.447214, i=0.894427, j=0.000000, k=0.000000)
  Body  2
    density:          0.300000
    shape axes ratio: (1.000000, 0.700000, 0.700000)
    initial KE ratio: 4.000000
    position:         (1.500000, 0.000000, 0.000000)
    velocity:         (1.587232, 0.981418, 0.108010)
    angular velocity: (5.492997, -3.012879, 0.477449)
    orientation:      (w=0.707107, i=0.000000, j=0.707107, k=0.000000)

Preparing first step: implicit scheme, no bootstrap passes required.
First step may take longer than later steps.

First step completed in 0.296 s.

Step   100/2000    5.0% | t 5.000 | ETA 3m 58s | step 0.14s | KE 52.4891 | drift +22.93% | fluid 16.5882 | solid 35.9009
  Impulse FP iterations last/mean/max 12/12.63/14
Step   200/2000   10.0% | t 10.000 | ETA 4m 0s | step 0.14s | KE 57.3088 | drift +34.22% | fluid 17.6692 | solid 39.6395
  Impulse FP iterations last/mean/max 12/12.51/14
Step   300/2000   15.0% | t 15.000 | ETA 3m 58s | step 0.16s | KE 58.4891 | drift +36.98% | fluid 17.8851 | solid 40.6041
  Impulse FP iterations last/mean/max 12/12.36/14
Step   400/2000   20.0% | t 20.000 | ETA 3m 54s | step 0.16s | KE 58.6187 | drift +37.28% | fluid 17.8843 | solid 40.7344
  Impulse FP iterations last/mean/max 11/12.23/14
Step   500/2000   25.0% | t 25.000 | ETA 3m 45s | step 0.17s | KE 58.8914 | drift +37.92% | fluid 17.9795 | solid 40.9119
  Impulse FP iterations last/mean/max 12/12.10/14
Step   600/2000   30.0% | t 30.000 | ETA 3m 34s | step 0.17s | KE 58.7623 | drift +37.62% | fluid 17.9294 | solid 40.8329
  Impulse FP iterations last/mean/max 12/12.03/14
Step   700/2000   35.0% | t 35.000 | ETA 3m 21s | step 0.18s | KE 58.6639 | drift +37.39% | fluid 17.8987 | solid 40.7652
  Impulse FP iterations last/mean/max 12/11.95/14
Step   800/2000   40.0% | t 40.000 | ETA 3m 7s | step 0.16s | KE 58.7780 | drift +37.66% | fluid 17.9651 | solid 40.8129
  Impulse FP iterations last/mean/max 12/11.90/14
Step   900/2000   45.0% | t 45.000 | ETA 2m 53s | step 0.17s | KE 58.6187 | drift +37.28% | fluid 17.9016 | solid 40.7171
  Impulse FP iterations last/mean/max 11/11.86/14
Step  1000/2000   50.0% | t 50.000 | ETA 2m 38s | step 0.15s | KE 58.5664 | drift +37.16% | fluid 17.8898 | solid 40.6766
  Impulse FP iterations last/mean/max 11/11.82/14
Step  1100/2000   55.0% | t 55.000 | ETA 2m 22s | step 0.17s | KE 58.6906 | drift +37.45% | fluid 17.9580 | solid 40.7326
  Impulse FP iterations last/mean/max 12/11.79/14
Step  1200/2000   60.0% | t 60.000 | ETA 2m 7s | step 0.15s | KE 58.5701 | drift +37.17% | fluid 17.9047 | solid 40.6655
  Impulse FP iterations last/mean/max 11/11.77/14
Step  1300/2000   65.0% | t 65.000 | ETA 1m 51s | step 0.15s | KE 58.5070 | drift +37.02% | fluid 17.8871 | solid 40.6199
  Impulse FP iterations last/mean/max 11/11.75/14
Step  1400/2000   70.0% | t 70.000 | ETA 1m 36s | step 0.17s | KE 58.6636 | drift +37.39% | fluid 17.9620 | solid 40.7016
  Impulse FP iterations last/mean/max 12/11.73/14
Step  1500/2000   75.0% | t 75.000 | ETA 1m 20s | step 0.16s | KE 58.5851 | drift +37.20% | fluid 17.9222 | solid 40.6630
  Impulse FP iterations last/mean/max 11/11.71/14
Step  1600/2000   80.0% | t 80.000 | ETA 1m 4s | step 0.17s | KE 58.4933 | drift +36.99% | fluid 17.8902 | solid 40.6031
  Impulse FP iterations last/mean/max 12/11.70/14
Step  1700/2000   85.0% | t 85.000 | ETA 48s | step 0.17s | KE 58.6566 | drift +37.37% | fluid 17.9631 | solid 40.6935
  Impulse FP iterations last/mean/max 12/11.69/14
Step  1800/2000   90.0% | t 90.000 | ETA 32s | step 0.15s | KE 58.6264 | drift +37.30% | fluid 17.9390 | solid 40.6874
  Impulse FP iterations last/mean/max 11/11.68/14
Step  1900/2000   95.0% | t 95.000 | ETA 16s | step 0.15s | KE 58.5005 | drift +37.01% | fluid 17.8919 | solid 40.6086
  Impulse FP iterations last/mean/max 12/11.67/14
Solver finished successfully - good job!
Results saved successfully.

================== Run summary ==================
  Bodies:            2
  Triangles / nodes: 256 / 516
  Timesteps:         2000  (dt = 0.05)
  Simulated time:    0 -> 100
  First-step setup:  0.296 s
  Mean time/step:    0.1605 s  (excl. first step)
  Total wall time:   5m 21s
  Impulse FP iters last/mean/max: 12 / 11.665 / 14
  Approx impulse solves/step:     11.665
  Impulse start cache hits/direct: 1999 / 1
  Impulse global drift P/H:       1.660215e-8 / 6.505556e-2
  Impulse per-body max drift P/H: 3.919410e-8 / 2.962682e-2
  CPU cores:         256 available, 8 Rayon worker thread(s)
  Started:           2026-06-22 19:45:43
  Finished:          2026-06-22 19:51:10
  Output file:       /work/e643/e643/shared/multi_ellip/studies/two_body_paper_sweeps/runs/spheroid_1_0p7_0p7/spheroid_1_0p7_0p7_rho0p3_E4_sep3_run01_impulse_noproj/multiple_body_complete.dat
================================================
