
================ Simulation setup ================
  Run label:         /work/e643/e643/shared/multi_ellip/studies/two_body_paper_sweeps/runs/spheroid_1_0p7_0p7/spheroid_1_0p7_0p7_rho4_E11_sep11_run03_impulse_noproj/
  Started:           2026-06-24 01:29:32
  Input file:        /work/e643/e643/shared/multi_ellip/studies/two_body_paper_sweeps/runs/spheroid_1_0p7_0p7/spheroid_1_0p7_0p7_rho4_E11_sep11_run03_impulse_noproj/input.txt
  Output file:       /work/e643/e643/shared/multi_ellip/studies/two_body_paper_sweeps/runs/spheroid_1_0p7_0p7/spheroid_1_0p7_0p7_rho4_E11_sep11_run03_impulse_noproj/multiple_body_complete.dat
  Bodies:            2
  Fluid density:     1
  Mesh:              ndiv 2 -> 256 triangles / 516 nodes
  Simulated time:    0 -> 100  (dt = 0.05, ~2000 steps)
  Output cadence:    every 1 step(s)
  Output rows:       ~2001
  Progress cadence:  every 100 step(s)
  CPU cores:         256 available, 8 Rayon worker thread(s)
  Strong coupling:   disabled
  Impulse scheme:    enabled
  Hamiltonian step:  disabled
  Hamiltonian midpt: disabled
  Variational step:  disabled
  Energy projection: disabled
  Projection particular metric: Euclidean
  Fluid KE gradient: disabled  (eps = 0.001, scale = 1, linear = 1, angular = 1)
  Fluid KE discrete gradient: disabled
  Impulse pair metric correction: disabled  (mode = pair discrete-gradient, cutoff = all pairs, inner/outer = 0/0, eps = 0.001, linear scale = 1, angular scale = 0)
  Impulse metric correction: disabled  (internal load constraint = disabled)
  Impulse variational defect probe: disabled
  Impulse quadratic pressure: disabled  (scale = 1)
  Added-mass stab:   disabled
  Exact BEM geometry: disabled
  Exact singular BEM: disabled
  Legacy singular SLP diagnostic: disabled
  Phi-dot blend:     0 (off)

  Solver guidance:
    - Strong coupling: use for stiff close-coupled runs; slower but more implicit.
    - Impulse scheme: use when impulse/momentum conservation or KE drift is the focus. Recommended.
    - Added-mass stab: use for higher mesh counts (ndiv > 3) to preserve stability - deprecated.
================================================
Solver starting - good luck!

Initial state:
  Body  1
    density:          4.000000
    shape axes ratio: (1.000000, 0.700000, 0.700000)
    initial KE ratio: 11.000000
    position:         (-5.500000, 0.000000, 0.000000)
    velocity:         (-1.017712, -0.616642, 0.508876)
    angular velocity: (-1.752412, -1.726755, -5.781504)
    orientation:      (w=0.315838, i=-0.323557, j=-0.801197, k=-0.391969)
  Body  2
    density:          4.000000
    shape axes ratio: (1.000000, 0.700000, 0.700000)
    initial KE ratio: 11.000000
    position:         (5.500000, 0.000000, 0.000000)
    velocity:         (-0.955867, -0.579169, 0.477952)
    angular velocity: (-4.037478, -0.530362, -4.784966)
    orientation:      (w=0.299719, i=-0.612048, j=0.392113, k=-0.617911)

Preparing first step: implicit scheme, no bootstrap passes required.
First step may take longer than later steps.

First step completed in 0.205 s.

Step   100/2000    5.0% | t 5.000 | ETA 2m 25s | step 0.10s | KE 328.0440 | drift +0.08% | fluid 8.4550 | solid 319.5890
  Impulse FP iterations last/mean/max 7/7.05/8
Step   200/2000   10.0% | t 10.000 | ETA 2m 28s | step 0.08s | KE 328.2826 | drift +0.15% | fluid 8.4406 | solid 319.8420
  Impulse FP iterations last/mean/max 7/7.06/8
Step   300/2000   15.0% | t 15.000 | ETA 2m 28s | step 0.09s | KE 328.4931 | drift +0.22% | fluid 8.0087 | solid 320.4845
  Impulse FP iterations last/mean/max 7/7.06/8
Step   400/2000   20.0% | t 20.000 | ETA 2m 25s | step 0.10s | KE 328.6486 | drift +0.26% | fluid 8.4592 | solid 320.1894
  Impulse FP iterations last/mean/max 7/7.05/8
Step   500/2000   25.0% | t 25.000 | ETA 2m 19s | step 0.11s | KE 328.7627 | drift +0.30% | fluid 9.0028 | solid 319.7599
  Impulse FP iterations last/mean/max 8/7.06/8
Step   600/2000   30.0% | t 30.000 | ETA 2m 12s | step 0.11s | KE 328.8693 | drift +0.33% | fluid 9.1275 | solid 319.7419
  Impulse FP iterations last/mean/max 7/7.05/8
Step   700/2000   35.0% | t 35.000 | ETA 2m 3s | step 0.10s | KE 328.9787 | drift +0.36% | fluid 8.7167 | solid 320.2620
  Impulse FP iterations last/mean/max 7/7.05/8
Step   800/2000   40.0% | t 40.000 | ETA 1m 55s | step 0.10s | KE 329.0684 | drift +0.39% | fluid 8.0165 | solid 321.0519
  Impulse FP iterations last/mean/max 7/7.05/8
Step   900/2000   45.0% | t 45.000 | ETA 1m 46s | step 0.10s | KE 329.1107 | drift +0.40% | fluid 8.2927 | solid 320.8180
  Impulse FP iterations last/mean/max 7/7.05/8
Step  1000/2000   50.0% | t 50.000 | ETA 1m 37s | step 0.10s | KE 329.1240 | drift +0.41% | fluid 8.4703 | solid 320.6537
  Impulse FP iterations last/mean/max 7/7.05/8
Step  1100/2000   55.0% | t 55.000 | ETA 1m 27s | step 0.11s | KE 329.1341 | drift +0.41% | fluid 8.7822 | solid 320.3520
  Impulse FP iterations last/mean/max 7/7.04/8
Step  1200/2000   60.0% | t 60.000 | ETA 1m 18s | step 0.10s | KE 329.1493 | drift +0.42% | fluid 8.4384 | solid 320.7110
  Impulse FP iterations last/mean/max 7/7.04/8
Step  1300/2000   65.0% | t 65.000 | ETA 1m 8s | step 0.10s | KE 329.1476 | drift +0.42% | fluid 8.5038 | solid 320.6438
  Impulse FP iterations last/mean/max 7/7.05/8
Step  1400/2000   70.0% | t 70.000 | ETA 58s | step 0.09s | KE 329.1249 | drift +0.41% | fluid 8.8575 | solid 320.2675
  Impulse FP iterations last/mean/max 7/7.05/8
Step  1500/2000   75.0% | t 75.000 | ETA 49s | step 0.10s | KE 329.1051 | drift +0.40% | fluid 8.9187 | solid 320.1864
  Impulse FP iterations last/mean/max 7/7.05/8
Step  1600/2000   80.0% | t 80.000 | ETA 39s | step 0.10s | KE 329.1029 | drift +0.40% | fluid 8.6701 | solid 320.4329
  Impulse FP iterations last/mean/max 7/7.04/8
Step  1700/2000   85.0% | t 85.000 | ETA 29s | step 0.10s | KE 329.1034 | drift +0.40% | fluid 7.9330 | solid 321.1704
  Impulse FP iterations last/mean/max 7/7.04/8
Step  1800/2000   90.0% | t 90.000 | ETA 19s | step 0.10s | KE 329.0738 | drift +0.39% | fluid 8.2055 | solid 320.8682
  Impulse FP iterations last/mean/max 7/7.04/8
Step  1900/2000   95.0% | t 95.000 | ETA 9s | step 0.09s | KE 329.0210 | drift +0.38% | fluid 8.5496 | solid 320.4714
  Impulse FP iterations last/mean/max 7/7.04/8
Solver finished successfully - good job!
Results saved successfully.

================== Run summary ==================
  Bodies:            2
  Triangles / nodes: 256 / 516
  Timesteps:         2000  (dt = 0.05)
  Simulated time:    0 -> 100
  First-step setup:  0.205 s
  Mean time/step:    0.0990 s  (excl. first step)
  Total wall time:   3m 18s
  Impulse FP iters last/mean/max: 7 / 7.040 / 8
  Approx impulse solves/step:     7.040
  Impulse start cache hits/direct: 1999 / 1
  Impulse global drift P/H:       5.404466e-9 / 5.840966e-3
  Impulse per-body max drift P/H: 8.731578e-9 / 3.868057e-3
  CPU cores:         256 available, 8 Rayon worker thread(s)
  Started:           2026-06-24 01:29:32
  Finished:          2026-06-24 01:32:51
  Output file:       /work/e643/e643/shared/multi_ellip/studies/two_body_paper_sweeps/runs/spheroid_1_0p7_0p7/spheroid_1_0p7_0p7_rho4_E11_sep11_run03_impulse_noproj/multiple_body_complete.dat
================================================
