
================ Simulation setup ================
  Run label:         /work/e643/e643/shared/multi_ellip/studies/departing_sphericity_sweep/runs/triaxial/heterogeneous_sphere/triaxial_heterogeneous_sphere_eps0p1_rho1_E0p5_sep8_run09_impulse_noproj/
  Started:           2026-06-24 02:46:58
  Input file:        /work/e643/e643/shared/multi_ellip/studies/departing_sphericity_sweep/runs/triaxial/heterogeneous_sphere/triaxial_heterogeneous_sphere_eps0p1_rho1_E0p5_sep8_run09_impulse_noproj/input.txt
  Output file:       /work/e643/e643/shared/multi_ellip/studies/departing_sphericity_sweep/runs/triaxial/heterogeneous_sphere/triaxial_heterogeneous_sphere_eps0p1_rho1_E0p5_sep8_run09_impulse_noproj/multiple_body_complete.dat
  Bodies:            2
  Fluid density:     1
  Mesh:              ndiv 2 -> 256 triangles / 516 nodes
  Simulated time:    0 -> 100  (dt = 0.05, ~2000 steps)
  Output cadence:    every 1 step(s)
  Output rows:       ~2001
  Progress cadence:  every 100 step(s)
  CPU cores:         256 available, 8 Rayon worker thread(s)
  Strong coupling:   disabled
  Impulse scheme:    enabled
  Hamiltonian step:  disabled
  Hamiltonian midpt: disabled
  Variational step:  disabled
  Energy projection: disabled
  Projection particular metric: Euclidean
  Fluid KE gradient: disabled  (eps = 0.001, scale = 1, linear = 1, angular = 1)
  Fluid KE discrete gradient: disabled
  Impulse pair metric correction: disabled  (mode = pair discrete-gradient, cutoff = all pairs, inner/outer = 0/0, eps = 0.001, linear scale = 1, angular scale = 0)
  Impulse metric correction: disabled  (internal load constraint = disabled)
  Impulse variational defect probe: disabled
  Impulse quadratic pressure: disabled  (scale = 1)
  Added-mass stab:   disabled
  Exact BEM geometry: disabled
  Exact singular BEM: disabled
  Legacy singular SLP diagnostic: disabled
  Phi-dot blend:     0 (off)

  Solver guidance:
    - Strong coupling: use for stiff close-coupled runs; slower but more implicit.
    - Impulse scheme: use when impulse/momentum conservation or KE drift is the focus. Recommended.
    - Added-mass stab: use for higher mesh counts (ndiv > 3) to preserve stability - deprecated.
================================================
Solver starting - good luck!

Initial state:
  Body  1
    density:          1.000000
    shape axes ratio: (1.000000, 0.909091, 0.826446)
    initial KE ratio: 0.500000
    position:         (-4.000000, 0.000000, 0.000000)
    velocity:         (-4.198860, 3.714669, -0.862187)
    angular velocity: (2.173165, 5.369874, -2.433151)
    orientation:      (w=0.496135, i=-0.866781, j=-0.020876, k=0.045886)
  Body  2
    density:          1.000000
    shape axes ratio: (1.000000, 1.000000, 1.000000)
    initial KE ratio: 0.500000
    position:         (4.000000, 0.000000, 0.000000)
    velocity:         (-4.160193, 3.680460, -0.854247)
    angular velocity: (-5.129481, 0.103400, -3.627140)
    orientation:      (w=0.355150, i=0.778623, j=0.077702, k=0.511446)

Preparing first step: implicit scheme, no bootstrap passes required.
First step may take longer than later steps.

First step completed in 0.279 s.

Step   100/2000    5.0% | t 5.000 | ETA 4m 3s | step 0.13s | KE 278.1277 | drift +0.83% | fluid 73.8121 | solid 204.3155
  Impulse FP iterations last/mean/max 9/8.94/10
Step   200/2000   10.0% | t 10.000 | ETA 3m 51s | step 0.13s | KE 271.8030 | drift -1.46% | fluid 72.6527 | solid 199.1503
  Impulse FP iterations last/mean/max 9/8.93/10
Step   300/2000   15.0% | t 15.000 | ETA 3m 38s | step 0.13s | KE 275.0147 | drift -0.30% | fluid 74.1570 | solid 200.8577
  Impulse FP iterations last/mean/max 9/8.93/10
Step   400/2000   20.0% | t 20.000 | ETA 3m 25s | step 0.13s | KE 278.8338 | drift +1.09% | fluid 75.5646 | solid 203.2691
  Impulse FP iterations last/mean/max 9/8.93/10
Step   500/2000   25.0% | t 25.000 | ETA 3m 12s | step 0.13s | KE 279.4090 | drift +1.29% | fluid 73.4566 | solid 205.9523
  Impulse FP iterations last/mean/max 9/8.92/10
Step   600/2000   30.0% | t 30.000 | ETA 2m 57s | step 0.12s | KE 284.0318 | drift +2.97% | fluid 72.4138 | solid 211.6180
  Impulse FP iterations last/mean/max 9/8.93/10
Step   700/2000   35.0% | t 35.000 | ETA 2m 43s | step 0.11s | KE 284.0780 | drift +2.99% | fluid 73.1058 | solid 210.9722
  Impulse FP iterations last/mean/max 8/8.93/10
Step   800/2000   40.0% | t 40.000 | ETA 2m 30s | step 0.13s | KE 286.6483 | drift +3.92% | fluid 74.0463 | solid 212.6019
  Impulse FP iterations last/mean/max 9/8.93/10
Step   900/2000   45.0% | t 45.000 | ETA 2m 18s | step 0.13s | KE 286.9847 | drift +4.04% | fluid 74.2681 | solid 212.7165
  Impulse FP iterations last/mean/max 9/8.93/10
Step  1000/2000   50.0% | t 50.000 | ETA 2m 5s | step 0.12s | KE 288.3699 | drift +4.54% | fluid 73.7286 | solid 214.6413
  Impulse FP iterations last/mean/max 9/8.93/10
Step  1100/2000   55.0% | t 55.000 | ETA 1m 53s | step 0.14s | KE 288.7144 | drift +4.67% | fluid 73.5966 | solid 215.1178
  Impulse FP iterations last/mean/max 9/8.92/10
Step  1200/2000   60.0% | t 60.000 | ETA 1m 40s | step 0.13s | KE 289.2385 | drift +4.86% | fluid 73.9866 | solid 215.2519
  Impulse FP iterations last/mean/max 9/8.92/10
Step  1300/2000   65.0% | t 65.000 | ETA 1m 28s | step 0.13s | KE 289.6421 | drift +5.00% | fluid 73.4436 | solid 216.1985
  Impulse FP iterations last/mean/max 9/8.92/10
Step  1400/2000   70.0% | t 70.000 | ETA 1m 15s | step 0.13s | KE 290.0384 | drift +5.15% | fluid 72.8899 | solid 217.1485
  Impulse FP iterations last/mean/max 9/8.91/10
Step  1500/2000   75.0% | t 75.000 | ETA 1m 3s | step 0.12s | KE 290.2222 | drift +5.21% | fluid 74.1578 | solid 216.0644
  Impulse FP iterations last/mean/max 9/8.91/10
Step  1600/2000   80.0% | t 80.000 | ETA 50s | step 0.13s | KE 290.2072 | drift +5.21% | fluid 75.1681 | solid 215.0391
  Impulse FP iterations last/mean/max 9/8.91/10
Step  1700/2000   85.0% | t 85.000 | ETA 37s | step 0.12s | KE 290.5618 | drift +5.34% | fluid 73.6321 | solid 216.9297
  Impulse FP iterations last/mean/max 9/8.91/10
Step  1800/2000   90.0% | t 90.000 | ETA 25s | step 0.11s | KE 290.7172 | drift +5.39% | fluid 72.1730 | solid 218.5442
  Impulse FP iterations last/mean/max 9/8.91/10
Step  1900/2000   95.0% | t 95.000 | ETA 12s | step 0.10s | KE 290.9093 | drift +5.46% | fluid 72.3859 | solid 218.5234
  Impulse FP iterations last/mean/max 9/8.91/10
Solver finished successfully - good job!
Results saved successfully.

================== Run summary ==================
  Bodies:            2
  Triangles / nodes: 256 / 516
  Timesteps:         2000  (dt = 0.05)
  Simulated time:    0 -> 100
  First-step setup:  0.279 s
  Mean time/step:    0.1241 s  (excl. first step)
  Total wall time:   4m 8s
  Impulse FP iters last/mean/max: 9 / 8.909 / 10
  Approx impulse solves/step:     8.910
  Impulse start cache hits/direct: 1999 / 1
  Impulse global drift P/H:       1.206129e-8 / 1.275610e-2
  Impulse per-body max drift P/H: 2.214375e-8 / 2.237422e-3
  CPU cores:         256 available, 8 Rayon worker thread(s)
  Started:           2026-06-24 02:46:58
  Finished:          2026-06-24 02:51:07
  Output file:       /work/e643/e643/shared/multi_ellip/studies/departing_sphericity_sweep/runs/triaxial/heterogeneous_sphere/triaxial_heterogeneous_sphere_eps0p1_rho1_E0p5_sep8_run09_impulse_noproj/multiple_body_complete.dat
================================================
