
================ Simulation setup ================
  Run label:         /work/e643/e643/shared/multi_ellip/studies/multibody_convergence_sweep/runs/periodic_temporal_ellipsoid_1_0p8_0p6_rho4_E1_sep8_nd3_dt0p1/
  Started:           2026-06-22 19:37:46
  Input file:        /work/e643/e643/shared/multi_ellip/studies/multibody_convergence_sweep/runs/periodic_temporal_ellipsoid_1_0p8_0p6_rho4_E1_sep8_nd3_dt0p1/input.txt
  Output file:       /work/e643/e643/shared/multi_ellip/studies/multibody_convergence_sweep/runs/periodic_temporal_ellipsoid_1_0p8_0p6_rho4_E1_sep8_nd3_dt0p1/multiple_body_complete.dat
  Bodies:            2
  Fluid density:     1
  Mesh:              ndiv 3 -> 1024 triangles / 2052 nodes
  Simulated time:    0 -> 10  (dt = 0.1, ~100 steps)
  Output cadence:    every 1 step(s)
  Output rows:       ~101
  Progress cadence:  every 10 step(s)
  CPU cores:         256 available, 16 Rayon worker thread(s)
  Strong coupling:   disabled
  Impulse scheme:    enabled
  Hamiltonian step:  disabled
  Hamiltonian midpt: disabled
  Variational step:  disabled
  Energy projection: disabled
  Projection particular metric: Euclidean
  Fluid KE gradient: disabled  (eps = 0.001, scale = 1, linear = 1, angular = 1)
  Fluid KE discrete gradient: disabled
  Impulse pair metric correction: disabled  (mode = pair discrete-gradient, cutoff = all pairs, inner/outer = 0/0, eps = 0.001, linear scale = 1, angular scale = 0)
  Impulse metric correction: disabled  (internal load constraint = disabled)
  Impulse variational defect probe: disabled
  Impulse quadratic pressure: disabled  (scale = 1)
  Added-mass stab:   disabled
  Exact BEM geometry: disabled
  Exact singular BEM: disabled
  Legacy singular SLP diagnostic: disabled
  Phi-dot blend:     0 (off)

  Solver guidance:
    - Strong coupling: use for stiff close-coupled runs; slower but more implicit.
    - Impulse scheme: use when impulse/momentum conservation or KE drift is the focus. Recommended.
    - Added-mass stab: use for higher mesh counts (ndiv > 3) to preserve stability - deprecated.
================================================
Solver starting - good luck!

Initial state:
  Body  1
    density:          4.000000
    shape axes ratio: (1.000000, 0.800000, 0.600000)
    initial KE ratio: 1.000000
    position:         (-4.000000, 0.000000, 0.000000)
    velocity:         (1.635285, -3.584878, 1.636093)
    angular velocity: (-0.697259, 5.554614, 2.852808)
    orientation:      (w=0.447214, i=0.894427, j=0.000000, k=0.000000)
  Body  2
    density:          4.000000
    shape axes ratio: (1.000000, 0.800000, 0.600000)
    initial KE ratio: 1.000000
    position:         (4.000000, 0.000000, 0.000000)
    velocity:         (1.575339, -3.453464, 1.576117)
    angular velocity: (3.677939, -3.922646, 3.250236)
    orientation:      (w=0.707107, i=0.000000, j=0.707107, k=0.000000)

Preparing first step: implicit scheme, no bootstrap passes required.
First step may take longer than later steps.

First step completed in 2.604 s.

Step    10/100    10.0% | t 1.000 | ETA 1m 35s | step 1.11s | KE 659.7260 | drift +0.06% | fluid 48.4982 | solid 611.2279
  Impulse FP iterations last/mean/max 9/8.80/9
Step    20/100    20.0% | t 2.000 | ETA 1m 23s | step 1.01s | KE 660.1147 | drift +0.11% | fluid 46.0654 | solid 614.0493
  Impulse FP iterations last/mean/max 9/8.80/9
Step    30/100    30.0% | t 3.000 | ETA 1m 13s | step 0.99s | KE 660.7597 | drift +0.21% | fluid 47.9756 | solid 612.7841
  Impulse FP iterations last/mean/max 9/8.80/9
Step    40/100    40.0% | t 4.000 | ETA 1m 2s | step 1.03s | KE 660.4091 | drift +0.16% | fluid 52.9370 | solid 607.4721
  Impulse FP iterations last/mean/max 9/8.82/9
Step    50/100    50.0% | t 5.000 | ETA 51s | step 0.97s | KE 661.2378 | drift +0.28% | fluid 46.9276 | solid 614.3101
  Impulse FP iterations last/mean/max 9/8.82/9
Step    60/100    60.0% | t 6.000 | ETA 40s | step 0.98s | KE 661.3030 | drift +0.29% | fluid 44.0006 | solid 617.3024
  Impulse FP iterations last/mean/max 9/8.78/9
Step    70/100    70.0% | t 7.000 | ETA 30s | step 0.96s | KE 661.1322 | drift +0.27% | fluid 44.2307 | solid 616.9015
  Impulse FP iterations last/mean/max 8/8.80/9
Step    80/100    80.0% | t 8.000 | ETA 20s | step 0.90s | KE 661.3219 | drift +0.30% | fluid 42.9640 | solid 618.3579
  Impulse FP iterations last/mean/max 8/8.79/9
Step    90/100    90.0% | t 9.000 | ETA 9s | step 1.03s | KE 660.7118 | drift +0.20% | fluid 46.1301 | solid 614.5818
  Impulse FP iterations last/mean/max 9/8.78/9
Solver finished successfully - good job!
Results saved successfully.

================== Run summary ==================
  Bodies:            2
  Triangles / nodes: 1024 / 2052
  Timesteps:         100  (dt = 0.1)
  Simulated time:    0 -> 10
  First-step setup:  2.604 s
  Mean time/step:    0.9943 s  (excl. first step)
  Total wall time:   1m 41s
  Impulse FP iters last/mean/max: 9 / 8.770 / 9
  Approx impulse solves/step:     8.780
  Impulse start cache hits/direct: 99 / 1
  Impulse global drift P/H:       1.928129e-10 / 6.847528e-2
  Impulse per-body max drift P/H: 3.673222e-10 / 1.089157e-2
  CPU cores:         256 available, 16 Rayon worker thread(s)
  Started:           2026-06-22 19:37:46
  Finished:          2026-06-22 19:39:28
  Output file:       /work/e643/e643/shared/multi_ellip/studies/multibody_convergence_sweep/runs/periodic_temporal_ellipsoid_1_0p8_0p6_rho4_E1_sep8_nd3_dt0p1/multiple_body_complete.dat
================================================
