
================ Simulation setup ================
  Run label:         /work/e643/e643/shared/multi_ellip/studies/two_body_paper_sweeps/runs/ellipsoid_1_0p8_0p6/ellipsoid_1_0p8_0p6_rho4_E0p55_sep3_run02_impulse_noproj/
  Started:           2026-06-22 19:26:46
  Input file:        /work/e643/e643/shared/multi_ellip/studies/two_body_paper_sweeps/runs/ellipsoid_1_0p8_0p6/ellipsoid_1_0p8_0p6_rho4_E0p55_sep3_run02_impulse_noproj/input.txt
  Output file:       /work/e643/e643/shared/multi_ellip/studies/two_body_paper_sweeps/runs/ellipsoid_1_0p8_0p6/ellipsoid_1_0p8_0p6_rho4_E0p55_sep3_run02_impulse_noproj/multiple_body_complete.dat
  Bodies:            2
  Fluid density:     1
  Mesh:              ndiv 2 -> 256 triangles / 516 nodes
  Simulated time:    0 -> 100  (dt = 0.05, ~2000 steps)
  Output cadence:    every 1 step(s)
  Output rows:       ~2001
  Progress cadence:  every 100 step(s)
  CPU cores:         256 available, 8 Rayon worker thread(s)
  Strong coupling:   disabled
  Impulse scheme:    enabled
  Hamiltonian step:  disabled
  Hamiltonian midpt: disabled
  Variational step:  disabled
  Energy projection: disabled
  Projection particular metric: Euclidean
  Fluid KE gradient: disabled  (eps = 0.001, scale = 1, linear = 1, angular = 1)
  Fluid KE discrete gradient: disabled
  Impulse pair metric correction: disabled  (mode = pair discrete-gradient, cutoff = all pairs, inner/outer = 0/0, eps = 0.001, linear scale = 1, angular scale = 0)
  Impulse metric correction: disabled  (internal load constraint = disabled)
  Impulse variational defect probe: disabled
  Impulse quadratic pressure: disabled  (scale = 1)
  Added-mass stab:   disabled
  Exact BEM geometry: disabled
  Exact singular BEM: disabled
  Legacy singular SLP diagnostic: disabled
  Phi-dot blend:     0 (off)

  Solver guidance:
    - Strong coupling: use for stiff close-coupled runs; slower but more implicit.
    - Impulse scheme: use when impulse/momentum conservation or KE drift is the focus. Recommended.
    - Added-mass stab: use for higher mesh counts (ndiv > 3) to preserve stability - deprecated.
================================================
Solver starting - good luck!

Initial state:
  Body  1
    density:          4.000000
    shape axes ratio: (1.000000, 0.800000, 0.600000)
    initial KE ratio: 0.550000
    position:         (-1.500000, 0.000000, 0.000000)
    velocity:         (-1.895635, -3.968864, -2.073967)
    angular velocity: (6.232966, 0.233370, -0.757686)
    orientation:      (w=0.577350, i=0.577350, j=0.577350, k=0.000000)
  Body  2
    density:          4.000000
    shape axes ratio: (1.000000, 0.800000, 0.600000)
    initial KE ratio: 0.550000
    position:         (1.500000, 0.000000, 0.000000)
    velocity:         (-2.219253, -4.646421, -2.428031)
    angular velocity: (3.940516, 0.774828, -4.832224)
    orientation:      (w=0.577350, i=-0.577350, j=0.000000, k=0.577350)

Preparing first step: implicit scheme, no bootstrap passes required.
First step may take longer than later steps.

First step completed in 0.300 s.

Step   100/2000    5.0% | t 5.000 | ETA 3m 54s | step 0.12s | KE 821.5648 | drift -0.71% | fluid 85.1485 | solid 736.4163
  Impulse FP iterations last/mean/max 9/8.95/10
Step   200/2000   10.0% | t 10.000 | ETA 3m 39s | step 0.12s | KE 829.8524 | drift +0.29% | fluid 75.1407 | solid 754.7118
  Impulse FP iterations last/mean/max 9/8.85/10
Step   300/2000   15.0% | t 15.000 | ETA 3m 25s | step 0.12s | KE 832.5784 | drift +0.62% | fluid 70.0828 | solid 762.4956
  Impulse FP iterations last/mean/max 9/8.81/10
Step   400/2000   20.0% | t 20.000 | ETA 3m 11s | step 0.13s | KE 834.1281 | drift +0.81% | fluid 59.0577 | solid 775.0704
  Impulse FP iterations last/mean/max 9/8.79/10
Step   500/2000   25.0% | t 25.000 | ETA 2m 59s | step 0.12s | KE 833.7176 | drift +0.76% | fluid 71.9136 | solid 761.8040
  Impulse FP iterations last/mean/max 9/8.78/10
Step   600/2000   30.0% | t 30.000 | ETA 2m 47s | step 0.12s | KE 834.2181 | drift +0.82% | fluid 65.1316 | solid 769.0866
  Impulse FP iterations last/mean/max 8/8.78/10
Step   700/2000   35.0% | t 35.000 | ETA 2m 35s | step 0.12s | KE 833.9206 | drift +0.79% | fluid 82.0875 | solid 751.8331
  Impulse FP iterations last/mean/max 9/8.77/10
Step   800/2000   40.0% | t 40.000 | ETA 2m 22s | step 0.11s | KE 833.9892 | drift +0.79% | fluid 71.5881 | solid 762.4011
  Impulse FP iterations last/mean/max 9/8.76/10
Step   900/2000   45.0% | t 45.000 | ETA 2m 10s | step 0.13s | KE 834.0148 | drift +0.80% | fluid 76.4482 | solid 757.5667
  Impulse FP iterations last/mean/max 9/8.76/10
Step  1000/2000   50.0% | t 50.000 | ETA 1m 58s | step 0.12s | KE 833.7854 | drift +0.77% | fluid 85.5613 | solid 748.2241
  Impulse FP iterations last/mean/max 9/8.75/10
Step  1100/2000   55.0% | t 55.000 | ETA 1m 46s | step 0.13s | KE 834.2956 | drift +0.83% | fluid 73.4239 | solid 760.8716
  Impulse FP iterations last/mean/max 9/8.75/10
Step  1200/2000   60.0% | t 60.000 | ETA 1m 35s | step 0.12s | KE 834.5365 | drift +0.86% | fluid 58.6161 | solid 775.9204
  Impulse FP iterations last/mean/max 8/8.75/10
Step  1300/2000   65.0% | t 65.000 | ETA 1m 23s | step 0.12s | KE 834.1341 | drift +0.81% | fluid 71.7525 | solid 762.3815
  Impulse FP iterations last/mean/max 9/8.75/10
Step  1400/2000   70.0% | t 70.000 | ETA 1m 11s | step 0.10s | KE 834.5042 | drift +0.86% | fluid 62.4224 | solid 772.0817
  Impulse FP iterations last/mean/max 8/8.75/10
Step  1500/2000   75.0% | t 75.000 | ETA 59s | step 0.11s | KE 834.8532 | drift +0.90% | fluid 60.1988 | solid 774.6544
  Impulse FP iterations last/mean/max 8/8.75/10
Step  1600/2000   80.0% | t 80.000 | ETA 47s | step 0.11s | KE 833.5541 | drift +0.74% | fluid 89.2605 | solid 744.2936
  Impulse FP iterations last/mean/max 9/8.74/10
Step  1700/2000   85.0% | t 85.000 | ETA 35s | step 0.10s | KE 834.5473 | drift +0.86% | fluid 60.5552 | solid 773.9921
  Impulse FP iterations last/mean/max 8/8.74/10
Step  1800/2000   90.0% | t 90.000 | ETA 23s | step 0.09s | KE 834.2295 | drift +0.82% | fluid 72.5958 | solid 761.6337
  Impulse FP iterations last/mean/max 9/8.75/10
Step  1900/2000   95.0% | t 95.000 | ETA 11s | step 0.10s | KE 833.6130 | drift +0.75% | fluid 86.9455 | solid 746.6676
  Impulse FP iterations last/mean/max 9/8.74/10
Solver finished successfully - good job!
Results saved successfully.

================== Run summary ==================
  Bodies:            2
  Triangles / nodes: 256 / 516
  Timesteps:         2000  (dt = 0.05)
  Simulated time:    0 -> 100
  First-step setup:  0.300 s
  Mean time/step:    0.1135 s  (excl. first step)
  Total wall time:   3m 47s
  Impulse FP iters last/mean/max: 9 / 8.744 / 10
  Approx impulse solves/step:     8.745
  Impulse start cache hits/direct: 1999 / 1
  Impulse global drift P/H:       1.804456e-9 / 1.983176e-2
  Impulse per-body max drift P/H: 2.865435e-9 / 9.715306e-3
  CPU cores:         256 available, 8 Rayon worker thread(s)
  Started:           2026-06-22 19:26:46
  Finished:          2026-06-22 19:30:34
  Output file:       /work/e643/e643/shared/multi_ellip/studies/two_body_paper_sweeps/runs/ellipsoid_1_0p8_0p6/ellipsoid_1_0p8_0p6_rho4_E0p55_sep3_run02_impulse_noproj/multiple_body_complete.dat
================================================
