
================ Simulation setup ================
  Run label:         /work/e643/e643/shared/multi_ellip/studies/two_body_paper_sweeps/runs/ellipsoid_1_0p8_0p6/ellipsoid_1_0p8_0p6_rho1_E1p5_sep8_run04_impulse_noproj/
  Started:           2026-06-24 01:38:55
  Input file:        /work/e643/e643/shared/multi_ellip/studies/two_body_paper_sweeps/runs/ellipsoid_1_0p8_0p6/ellipsoid_1_0p8_0p6_rho1_E1p5_sep8_run04_impulse_noproj/input.txt
  Output file:       /work/e643/e643/shared/multi_ellip/studies/two_body_paper_sweeps/runs/ellipsoid_1_0p8_0p6/ellipsoid_1_0p8_0p6_rho1_E1p5_sep8_run04_impulse_noproj/multiple_body_complete.dat
  Bodies:            2
  Fluid density:     1
  Mesh:              ndiv 2 -> 256 triangles / 516 nodes
  Simulated time:    0 -> 100  (dt = 0.05, ~2000 steps)
  Output cadence:    every 1 step(s)
  Output rows:       ~2001
  Progress cadence:  every 100 step(s)
  CPU cores:         256 available, 8 Rayon worker thread(s)
  Strong coupling:   disabled
  Impulse scheme:    enabled
  Hamiltonian step:  disabled
  Hamiltonian midpt: disabled
  Variational step:  disabled
  Energy projection: disabled
  Projection particular metric: Euclidean
  Fluid KE gradient: disabled  (eps = 0.001, scale = 1, linear = 1, angular = 1)
  Fluid KE discrete gradient: disabled
  Impulse pair metric correction: disabled  (mode = pair discrete-gradient, cutoff = all pairs, inner/outer = 0/0, eps = 0.001, linear scale = 1, angular scale = 0)
  Impulse metric correction: disabled  (internal load constraint = disabled)
  Impulse variational defect probe: disabled
  Impulse quadratic pressure: disabled  (scale = 1)
  Added-mass stab:   disabled
  Exact BEM geometry: disabled
  Exact singular BEM: disabled
  Legacy singular SLP diagnostic: disabled
  Phi-dot blend:     0 (off)

  Solver guidance:
    - Strong coupling: use for stiff close-coupled runs; slower but more implicit.
    - Impulse scheme: use when impulse/momentum conservation or KE drift is the focus. Recommended.
    - Added-mass stab: use for higher mesh counts (ndiv > 3) to preserve stability - deprecated.
================================================
Solver starting - good luck!

Initial state:
  Body  1
    density:          1.000000
    shape axes ratio: (1.000000, 0.800000, 0.600000)
    initial KE ratio: 1.500000
    position:         (-4.000000, 0.000000, 0.000000)
    velocity:         (-3.024343, 0.418271, -1.441452)
    angular velocity: (-3.253152, -4.455635, 3.007114)
    orientation:      (w=-0.772232, i=-0.299924, j=0.558569, k=0.041297)
  Body  2
    density:          1.000000
    shape axes ratio: (1.000000, 0.800000, 0.600000)
    initial KE ratio: 1.500000
    position:         (4.000000, 0.000000, 0.000000)
    velocity:         (-2.773074, 0.383520, -1.321693)
    angular velocity: (5.637921, -1.095539, 2.547951)
    orientation:      (w=0.257072, i=-0.162384, j=0.553813, k=0.775137)

Preparing first step: implicit scheme, no bootstrap passes required.
First step may take longer than later steps.

First step completed in 0.268 s.

Step   100/2000    5.0% | t 5.000 | ETA 4m 47s | step 0.15s | KE 134.1254 | drift -0.82% | fluid 26.7910 | solid 107.3344
  Impulse FP iterations last/mean/max 10/10.86/12
Step   200/2000   10.0% | t 10.000 | ETA 4m 35s | step 0.17s | KE 133.8895 | drift -1.00% | fluid 27.2082 | solid 106.6813
  Impulse FP iterations last/mean/max 11/10.79/12
Step   300/2000   15.0% | t 15.000 | ETA 4m 20s | step 0.15s | KE 133.7777 | drift -1.08% | fluid 27.7012 | solid 106.0765
  Impulse FP iterations last/mean/max 11/10.73/12
Step   400/2000   20.0% | t 20.000 | ETA 4m 5s | step 0.16s | KE 133.6258 | drift -1.19% | fluid 29.2027 | solid 104.4230
  Impulse FP iterations last/mean/max 11/10.71/12
Step   500/2000   25.0% | t 25.000 | ETA 3m 50s | step 0.14s | KE 133.9220 | drift -0.97% | fluid 22.5054 | solid 111.4166
  Impulse FP iterations last/mean/max 10/10.69/12
Step   600/2000   30.0% | t 30.000 | ETA 3m 35s | step 0.17s | KE 133.9730 | drift -0.94% | fluid 26.7659 | solid 107.2071
  Impulse FP iterations last/mean/max 11/10.70/12
Step   700/2000   35.0% | t 35.000 | ETA 3m 19s | step 0.15s | KE 133.7990 | drift -1.07% | fluid 29.0289 | solid 104.7701
  Impulse FP iterations last/mean/max 11/10.69/12
Step   800/2000   40.0% | t 40.000 | ETA 3m 4s | step 0.15s | KE 133.9653 | drift -0.94% | fluid 26.3560 | solid 107.6094
  Impulse FP iterations last/mean/max 11/10.69/12
Step   900/2000   45.0% | t 45.000 | ETA 2m 48s | step 0.14s | KE 133.9386 | drift -0.96% | fluid 26.7199 | solid 107.2186
  Impulse FP iterations last/mean/max 10/10.68/12
Step  1000/2000   50.0% | t 50.000 | ETA 2m 33s | step 0.16s | KE 133.7560 | drift -1.10% | fluid 27.2237 | solid 106.5323
  Impulse FP iterations last/mean/max 11/10.68/12
Step  1100/2000   55.0% | t 55.000 | ETA 2m 18s | step 0.16s | KE 133.9148 | drift -0.98% | fluid 23.9497 | solid 109.9651
  Impulse FP iterations last/mean/max 11/10.68/12
Step  1200/2000   60.0% | t 60.000 | ETA 2m 2s | step 0.14s | KE 133.9658 | drift -0.94% | fluid 26.9207 | solid 107.0451
  Impulse FP iterations last/mean/max 10/10.68/12
Step  1300/2000   65.0% | t 65.000 | ETA 1m 47s | step 0.16s | KE 133.7174 | drift -1.13% | fluid 30.6121 | solid 103.1053
  Impulse FP iterations last/mean/max 11/10.68/12
Step  1400/2000   70.0% | t 70.000 | ETA 1m 32s | step 0.16s | KE 133.9337 | drift -0.97% | fluid 26.4627 | solid 107.4709
  Impulse FP iterations last/mean/max 11/10.67/12
Step  1500/2000   75.0% | t 75.000 | ETA 1m 16s | step 0.13s | KE 133.9523 | drift -0.95% | fluid 24.8489 | solid 109.1033
  Impulse FP iterations last/mean/max 10/10.67/12
Step  1600/2000   80.0% | t 80.000 | ETA 1m 1s | step 0.13s | KE 133.8578 | drift -1.02% | fluid 24.0632 | solid 109.7946
  Impulse FP iterations last/mean/max 10/10.67/12
Step  1700/2000   85.0% | t 85.000 | ETA 46s | step 0.15s | KE 133.8835 | drift -1.00% | fluid 26.8643 | solid 107.0191
  Impulse FP iterations last/mean/max 11/10.68/12
Step  1800/2000   90.0% | t 90.000 | ETA 30s | step 0.13s | KE 133.9361 | drift -0.96% | fluid 27.7967 | solid 106.1394
  Impulse FP iterations last/mean/max 10/10.67/12
Step  1900/2000   95.0% | t 95.000 | ETA 15s | step 0.16s | KE 133.7077 | drift -1.13% | fluid 30.4744 | solid 103.2333
  Impulse FP iterations last/mean/max 11/10.67/12
Solver finished successfully - good job!
Results saved successfully.

================== Run summary ==================
  Bodies:            2
  Triangles / nodes: 256 / 516
  Timesteps:         2000  (dt = 0.05)
  Simulated time:    0 -> 100
  First-step setup:  0.268 s
  Mean time/step:    0.1533 s  (excl. first step)
  Total wall time:   5m 6s
  Impulse FP iters last/mean/max: 11 / 10.667 / 12
  Approx impulse solves/step:     10.668
  Impulse start cache hits/direct: 1999 / 1
  Impulse global drift P/H:       1.257748e-8 / 1.836964e-2
  Impulse per-body max drift P/H: 1.424965e-8 / 6.218990e-3
  CPU cores:         256 available, 8 Rayon worker thread(s)
  Started:           2026-06-24 01:38:55
  Finished:          2026-06-24 01:44:02
  Output file:       /work/e643/e643/shared/multi_ellip/studies/two_body_paper_sweeps/runs/ellipsoid_1_0p8_0p6/ellipsoid_1_0p8_0p6_rho1_E1p5_sep8_run04_impulse_noproj/multiple_body_complete.dat
================================================
