
================ Simulation setup ================
  Run label:         /work/e643/e643/shared/multi_ellip/studies/departing_sphericity_sweep/runs/spheroid_prolate/homogeneous/spheroid_prolate_homogeneous_eps0p001_rho1_E0p5_sep8_run01_impulse_noproj/
  Started:           2026-06-24 02:23:16
  Input file:        /work/e643/e643/shared/multi_ellip/studies/departing_sphericity_sweep/runs/spheroid_prolate/homogeneous/spheroid_prolate_homogeneous_eps0p001_rho1_E0p5_sep8_run01_impulse_noproj/input.txt
  Output file:       /work/e643/e643/shared/multi_ellip/studies/departing_sphericity_sweep/runs/spheroid_prolate/homogeneous/spheroid_prolate_homogeneous_eps0p001_rho1_E0p5_sep8_run01_impulse_noproj/multiple_body_complete.dat
  Bodies:            2
  Fluid density:     1
  Mesh:              ndiv 2 -> 256 triangles / 516 nodes
  Simulated time:    0 -> 100  (dt = 0.05, ~2000 steps)
  Output cadence:    every 1 step(s)
  Output rows:       ~2001
  Progress cadence:  every 100 step(s)
  CPU cores:         256 available, 8 Rayon worker thread(s)
  Strong coupling:   disabled
  Impulse scheme:    enabled
  Hamiltonian step:  disabled
  Hamiltonian midpt: disabled
  Variational step:  disabled
  Energy projection: disabled
  Projection particular metric: Euclidean
  Fluid KE gradient: disabled  (eps = 0.001, scale = 1, linear = 1, angular = 1)
  Fluid KE discrete gradient: disabled
  Impulse pair metric correction: disabled  (mode = pair discrete-gradient, cutoff = all pairs, inner/outer = 0/0, eps = 0.001, linear scale = 1, angular scale = 0)
  Impulse metric correction: disabled  (internal load constraint = disabled)
  Impulse variational defect probe: disabled
  Impulse quadratic pressure: disabled  (scale = 1)
  Added-mass stab:   disabled
  Exact BEM geometry: disabled
  Exact singular BEM: disabled
  Legacy singular SLP diagnostic: disabled
  Phi-dot blend:     0 (off)

  Solver guidance:
    - Strong coupling: use for stiff close-coupled runs; slower but more implicit.
    - Impulse scheme: use when impulse/momentum conservation or KE drift is the focus. Recommended.
    - Added-mass stab: use for higher mesh counts (ndiv > 3) to preserve stability - deprecated.
================================================
Solver starting - good luck!

Initial state:
  Body  1
    density:          1.000000
    shape axes ratio: (1.000000, 0.997006, 0.997006)
    initial KE ratio: 0.500000
    position:         (-4.000000, 0.000000, 0.000000)
    velocity:         (5.319240, 1.048556, -1.490192)
    angular velocity: (0.023095, 6.116369, -1.438023)
    orientation:      (w=-0.448678, i=-0.490690, j=-0.570390, k=-0.482251)
  Body  2
    density:          1.000000
    shape axes ratio: (1.000000, 0.997006, 0.997006)
    initial KE ratio: 0.500000
    position:         (4.000000, 0.000000, 0.000000)
    velocity:         (5.319040, 1.048517, -1.490136)
    angular velocity: (0.996117, 3.888437, -4.833862)
    orientation:      (w=-0.799028, i=0.496542, j=-0.288153, k=0.178795)

Preparing first step: implicit scheme, no bootstrap passes required.
First step may take longer than later steps.

First step completed in 2.808 s.

Step   100/2000    5.0% | t 5.000 | ETA 3m 31s | step 0.12s | KE 266.6291 | drift -1.49% | fluid 72.1280 | solid 194.5011
  Impulse FP iterations last/mean/max 8/7.96/8
Step   200/2000   10.0% | t 10.000 | ETA 3m 19s | step 0.10s | KE 263.7629 | drift -2.55% | fluid 72.1247 | solid 191.6382
  Impulse FP iterations last/mean/max 8/7.96/8
Step   300/2000   15.0% | t 15.000 | ETA 3m 8s | step 0.10s | KE 262.0593 | drift -3.18% | fluid 72.1451 | solid 189.9142
  Impulse FP iterations last/mean/max 7/7.95/8
Step   400/2000   20.0% | t 20.000 | ETA 2m 57s | step 0.10s | KE 261.5141 | drift -3.38% | fluid 72.1010 | solid 189.4131
  Impulse FP iterations last/mean/max 8/7.95/8
Step   500/2000   25.0% | t 25.000 | ETA 2m 46s | step 0.11s | KE 262.0979 | drift -3.17% | fluid 72.0998 | solid 189.9981
  Impulse FP iterations last/mean/max 8/7.94/8
Step   600/2000   30.0% | t 30.000 | ETA 2m 34s | step 0.12s | KE 263.7898 | drift -2.54% | fluid 72.1397 | solid 191.6501
  Impulse FP iterations last/mean/max 8/7.91/8
Step   700/2000   35.0% | t 35.000 | ETA 2m 23s | step 0.10s | KE 266.5819 | drift -1.51% | fluid 72.1439 | solid 194.4380
  Impulse FP iterations last/mean/max 8/7.89/8
Step   800/2000   40.0% | t 40.000 | ETA 2m 11s | step 0.11s | KE 270.4561 | drift -0.08% | fluid 72.1040 | solid 198.3521
  Impulse FP iterations last/mean/max 8/7.85/8
Step   900/2000   45.0% | t 45.000 | ETA 2m 0s | step 0.11s | KE 275.3788 | drift +1.74% | fluid 72.1345 | solid 203.2443
  Impulse FP iterations last/mean/max 8/7.82/8
Step  1000/2000   50.0% | t 50.000 | ETA 1m 49s | step 0.08s | KE 281.3632 | drift +3.95% | fluid 72.1075 | solid 209.2557
  Impulse FP iterations last/mean/max 6/7.79/8
Step  1100/2000   55.0% | t 55.000 | ETA 1m 37s | step 0.10s | KE 288.3876 | drift +6.55% | fluid 72.1254 | solid 216.2622
  Impulse FP iterations last/mean/max 7/7.76/8
Step  1200/2000   60.0% | t 60.000 | ETA 1m 26s | step 0.11s | KE 296.4671 | drift +9.53% | fluid 72.1331 | solid 224.3340
  Impulse FP iterations last/mean/max 8/7.73/8
Step  1300/2000   65.0% | t 65.000 | ETA 1m 15s | step 0.09s | KE 305.6434 | drift +12.92% | fluid 72.0690 | solid 233.5744
  Impulse FP iterations last/mean/max 7/7.70/8
Step  1400/2000   70.0% | t 70.000 | ETA 1m 4s | step 0.08s | KE 315.9181 | drift +16.72% | fluid 72.0968 | solid 243.8213
  Impulse FP iterations last/mean/max 7/7.66/8
Step  1500/2000   75.0% | t 75.000 | ETA 52s | step 0.09s | KE 327.3997 | drift +20.96% | fluid 72.0876 | solid 255.3121
  Impulse FP iterations last/mean/max 7/7.61/8
Step  1600/2000   80.0% | t 80.000 | ETA 41s | step 0.07s | KE 340.1445 | drift +25.67% | fluid 72.0827 | solid 268.0617
  Impulse FP iterations last/mean/max 7/7.58/8
Step  1700/2000   85.0% | t 85.000 | ETA 30s | step 0.09s | KE 354.2361 | drift +30.88% | fluid 72.0838 | solid 282.1523
  Impulse FP iterations last/mean/max 8/7.54/8
Step  1800/2000   90.0% | t 90.000 | ETA 20s | step 0.06s | KE 369.7453 | drift +36.61% | fluid 72.0752 | solid 297.6702
  Impulse FP iterations last/mean/max 6/7.51/8
Step  1900/2000   95.0% | t 95.000 | ETA 9s | step 0.06s | KE 386.6320 | drift +42.84% | fluid 72.1244 | solid 314.5076
  Impulse FP iterations last/mean/max 7/7.49/8
Solver finished successfully - good job!
Results saved successfully.

================== Run summary ==================
  Bodies:            2
  Triangles / nodes: 256 / 516
  Timesteps:         2000  (dt = 0.05)
  Simulated time:    0 -> 100
  First-step setup:  2.808 s
  Mean time/step:    0.0967 s  (excl. first step)
  Total wall time:   3m 16s
  Impulse FP iters last/mean/max: 8 / 7.465 / 8
  Approx impulse solves/step:     7.465
  Impulse start cache hits/direct: 1999 / 1
  Impulse global drift P/H:       1.440669e-8 / 2.592087e-2
  Impulse per-body max drift P/H: 2.768216e-8 / 1.034336e-2
  CPU cores:         256 available, 8 Rayon worker thread(s)
  Started:           2026-06-24 02:23:16
  Finished:          2026-06-24 02:26:33
  Output file:       /work/e643/e643/shared/multi_ellip/studies/departing_sphericity_sweep/runs/spheroid_prolate/homogeneous/spheroid_prolate_homogeneous_eps0p001_rho1_E0p5_sep8_run01_impulse_noproj/multiple_body_complete.dat
================================================
