
================ Simulation setup ================
  Run label:         /work/e643/e643/shared/multi_ellip/studies/departing_sphericity_sweep/runs/spheroid_oblate/homogeneous/spheroid_oblate_homogeneous_eps0p0003_rho1_E0p5_sep8_run02_impulse_noproj/
  Started:           2026-06-24 02:23:12
  Input file:        /work/e643/e643/shared/multi_ellip/studies/departing_sphericity_sweep/runs/spheroid_oblate/homogeneous/spheroid_oblate_homogeneous_eps0p0003_rho1_E0p5_sep8_run02_impulse_noproj/input.txt
  Output file:       /work/e643/e643/shared/multi_ellip/studies/departing_sphericity_sweep/runs/spheroid_oblate/homogeneous/spheroid_oblate_homogeneous_eps0p0003_rho1_E0p5_sep8_run02_impulse_noproj/multiple_body_complete.dat
  Bodies:            2
  Fluid density:     1
  Mesh:              ndiv 2 -> 256 triangles / 516 nodes
  Simulated time:    0 -> 100  (dt = 0.05, ~2000 steps)
  Output cadence:    every 1 step(s)
  Output rows:       ~2001
  Progress cadence:  every 100 step(s)
  CPU cores:         256 available, 8 Rayon worker thread(s)
  Strong coupling:   disabled
  Impulse scheme:    enabled
  Hamiltonian step:  disabled
  Hamiltonian midpt: disabled
  Variational step:  disabled
  Energy projection: disabled
  Projection particular metric: Euclidean
  Fluid KE gradient: disabled  (eps = 0.001, scale = 1, linear = 1, angular = 1)
  Fluid KE discrete gradient: disabled
  Impulse pair metric correction: disabled  (mode = pair discrete-gradient, cutoff = all pairs, inner/outer = 0/0, eps = 0.001, linear scale = 1, angular scale = 0)
  Impulse metric correction: disabled  (internal load constraint = disabled)
  Impulse variational defect probe: disabled
  Impulse quadratic pressure: disabled  (scale = 1)
  Added-mass stab:   disabled
  Exact BEM geometry: disabled
  Exact singular BEM: disabled
  Legacy singular SLP diagnostic: disabled
  Phi-dot blend:     0 (off)

  Solver guidance:
    - Strong coupling: use for stiff close-coupled runs; slower but more implicit.
    - Impulse scheme: use when impulse/momentum conservation or KE drift is the focus. Recommended.
    - Added-mass stab: use for higher mesh counts (ndiv > 3) to preserve stability - deprecated.
================================================
Solver starting - good luck!

Initial state:
  Body  1
    density:          1.000000
    shape axes ratio: (1.000000, 1.000000, 0.999101)
    initial KE ratio: 0.500000
    position:         (-4.000000, 0.000000, 0.000000)
    velocity:         (-1.666828, 3.368260, -4.177315)
    angular velocity: (0.394906, -6.250982, 0.497691)
    orientation:      (w=-0.528022, i=-0.307321, j=0.718412, k=0.332611)
  Body  2
    density:          1.000000
    shape axes ratio: (1.000000, 1.000000, 0.999101)
    initial KE ratio: 0.500000
    position:         (4.000000, 0.000000, 0.000000)
    velocity:         (-1.667128, 3.368867, -4.178068)
    angular velocity: (-0.489988, 4.814037, -4.007915)
    orientation:      (w=-0.025837, i=-0.616811, j=-0.155239, k=0.771218)

Preparing first step: implicit scheme, no bootstrap passes required.
First step may take longer than later steps.

First step completed in 4.157 s.

Step   100/2000    5.0% | t 5.000 | ETA 2m 54s | step 0.09s | KE 268.3323 | drift -0.96% | fluid 72.5199 | solid 195.8123
  Impulse FP iterations last/mean/max 7/6.99/7
Step   200/2000   10.0% | t 10.000 | ETA 2m 44s | step 0.10s | KE 266.7259 | drift -1.55% | fluid 72.5250 | solid 194.2010
  Impulse FP iterations last/mean/max 7/6.97/7
Step   300/2000   15.0% | t 15.000 | ETA 2m 35s | step 0.09s | KE 266.1022 | drift -1.78% | fluid 72.5239 | solid 193.5782
  Impulse FP iterations last/mean/max 7/6.91/7
Step   400/2000   20.0% | t 20.000 | ETA 2m 25s | step 0.09s | KE 266.4484 | drift -1.66% | fluid 72.5210 | solid 193.9274
  Impulse FP iterations last/mean/max 7/6.89/7
Step   500/2000   25.0% | t 25.000 | ETA 2m 16s | step 0.09s | KE 267.7532 | drift -1.17% | fluid 72.5206 | solid 195.2326
  Impulse FP iterations last/mean/max 7/6.90/7
Step   600/2000   30.0% | t 30.000 | ETA 2m 7s | step 0.09s | KE 270.0080 | drift -0.34% | fluid 72.5244 | solid 197.4835
  Impulse FP iterations last/mean/max 7/6.90/7
Step   700/2000   35.0% | t 35.000 | ETA 1m 58s | step 0.09s | KE 273.2022 | drift +0.84% | fluid 72.5217 | solid 200.6805
  Impulse FP iterations last/mean/max 7/6.91/7
Step   800/2000   40.0% | t 40.000 | ETA 1m 49s | step 0.09s | KE 277.3292 | drift +2.36% | fluid 72.5331 | solid 204.7961
  Impulse FP iterations last/mean/max 7/6.92/7
Step   900/2000   45.0% | t 45.000 | ETA 1m 40s | step 0.10s | KE 282.3833 | drift +4.23% | fluid 72.5191 | solid 209.8641
  Impulse FP iterations last/mean/max 7/6.93/7
Step  1000/2000   50.0% | t 50.000 | ETA 1m 31s | step 0.09s | KE 288.3539 | drift +6.43% | fluid 72.5222 | solid 215.8317
  Impulse FP iterations last/mean/max 7/6.94/7
Step  1100/2000   55.0% | t 55.000 | ETA 1m 22s | step 0.10s | KE 295.2325 | drift +8.97% | fluid 72.5297 | solid 222.7027
  Impulse FP iterations last/mean/max 7/6.94/7
Step  1200/2000   60.0% | t 60.000 | ETA 1m 13s | step 0.09s | KE 303.0179 | drift +11.84% | fluid 72.5226 | solid 230.4953
  Impulse FP iterations last/mean/max 7/6.95/8
Step  1300/2000   65.0% | t 65.000 | ETA 1m 4s | step 0.09s | KE 311.6950 | drift +15.04% | fluid 72.5240 | solid 239.1709
  Impulse FP iterations last/mean/max 7/6.95/8
Step  1400/2000   70.0% | t 70.000 | ETA 54s | step 0.10s | KE 321.2562 | drift +18.57% | fluid 72.5367 | solid 248.7195
  Impulse FP iterations last/mean/max 8/6.96/8
Step  1500/2000   75.0% | t 75.000 | ETA 45s | step 0.08s | KE 331.6996 | drift +22.43% | fluid 72.5330 | solid 259.1666
  Impulse FP iterations last/mean/max 7/6.96/8
Step  1600/2000   80.0% | t 80.000 | ETA 36s | step 0.08s | KE 343.0107 | drift +26.60% | fluid 72.5287 | solid 270.4820
  Impulse FP iterations last/mean/max 7/6.97/8
Step  1700/2000   85.0% | t 85.000 | ETA 26s | step 0.09s | KE 355.1862 | drift +31.10% | fluid 72.5270 | solid 282.6592
  Impulse FP iterations last/mean/max 7/6.97/8
Step  1800/2000   90.0% | t 90.000 | ETA 17s | step 0.07s | KE 368.2103 | drift +35.90% | fluid 72.5264 | solid 295.6839
  Impulse FP iterations last/mean/max 7/6.98/8
Step  1900/2000   95.0% | t 95.000 | ETA 8s | step 0.06s | KE 382.0799 | drift +41.02% | fluid 72.5303 | solid 309.5496
  Impulse FP iterations last/mean/max 7/6.98/8
Solver finished successfully - good job!
Results saved successfully.

================== Run summary ==================
  Bodies:            2
  Triangles / nodes: 256 / 516
  Timesteps:         2000  (dt = 0.05)
  Simulated time:    0 -> 100
  First-step setup:  4.157 s
  Mean time/step:    0.0863 s  (excl. first step)
  Total wall time:   2m 56s
  Impulse FP iters last/mean/max: 7 / 6.982 / 8
  Approx impulse solves/step:     6.982
  Impulse start cache hits/direct: 1999 / 1
  Impulse global drift P/H:       7.402494e-9 / 5.822648e-2
  Impulse per-body max drift P/H: 1.186409e-8 / 2.131105e-3
  CPU cores:         256 available, 8 Rayon worker thread(s)
  Started:           2026-06-24 02:23:12
  Finished:          2026-06-24 02:26:10
  Output file:       /work/e643/e643/shared/multi_ellip/studies/departing_sphericity_sweep/runs/spheroid_oblate/homogeneous/spheroid_oblate_homogeneous_eps0p0003_rho1_E0p5_sep8_run02_impulse_noproj/multiple_body_complete.dat
================================================
