
================ Simulation setup ================
  Run label:         /work/e643/e643/shared/multi_ellip/studies/two_body_paper_sweeps/runs/spheroid_1_0p7_0p7/spheroid_1_0p7_0p7_rho4_E0p55_sep5_run02_impulse_noproj/
  Started:           2026-06-22 19:26:45
  Input file:        /work/e643/e643/shared/multi_ellip/studies/two_body_paper_sweeps/runs/spheroid_1_0p7_0p7/spheroid_1_0p7_0p7_rho4_E0p55_sep5_run02_impulse_noproj/input.txt
  Output file:       /work/e643/e643/shared/multi_ellip/studies/two_body_paper_sweeps/runs/spheroid_1_0p7_0p7/spheroid_1_0p7_0p7_rho4_E0p55_sep5_run02_impulse_noproj/multiple_body_complete.dat
  Bodies:            2
  Fluid density:     1
  Mesh:              ndiv 2 -> 256 triangles / 516 nodes
  Simulated time:    0 -> 100  (dt = 0.05, ~2000 steps)
  Output cadence:    every 1 step(s)
  Output rows:       ~2001
  Progress cadence:  every 100 step(s)
  CPU cores:         256 available, 8 Rayon worker thread(s)
  Strong coupling:   disabled
  Impulse scheme:    enabled
  Hamiltonian step:  disabled
  Hamiltonian midpt: disabled
  Variational step:  disabled
  Energy projection: disabled
  Projection particular metric: Euclidean
  Fluid KE gradient: disabled  (eps = 0.001, scale = 1, linear = 1, angular = 1)
  Fluid KE discrete gradient: disabled
  Impulse pair metric correction: disabled  (mode = pair discrete-gradient, cutoff = all pairs, inner/outer = 0/0, eps = 0.001, linear scale = 1, angular scale = 0)
  Impulse metric correction: disabled  (internal load constraint = disabled)
  Impulse variational defect probe: disabled
  Impulse quadratic pressure: disabled  (scale = 1)
  Added-mass stab:   disabled
  Exact BEM geometry: disabled
  Exact singular BEM: disabled
  Legacy singular SLP diagnostic: disabled
  Phi-dot blend:     0 (off)

  Solver guidance:
    - Strong coupling: use for stiff close-coupled runs; slower but more implicit.
    - Impulse scheme: use when impulse/momentum conservation or KE drift is the focus. Recommended.
    - Added-mass stab: use for higher mesh counts (ndiv > 3) to preserve stability - deprecated.
================================================
Solver starting - good luck!

Initial state:
  Body  1
    density:          4.000000
    shape axes ratio: (1.000000, 0.700000, 0.700000)
    initial KE ratio: 0.550000
    position:         (-2.500000, 0.000000, 0.000000)
    velocity:         (-3.364933, 4.682646, 1.010805)
    angular velocity: (0.693352, 3.639515, -5.074605)
    orientation:      (w=0.577350, i=0.577350, j=0.577350, k=0.000000)
  Body  2
    density:          4.000000
    shape axes ratio: (1.000000, 0.700000, 0.700000)
    initial KE ratio: 0.550000
    position:         (2.500000, 0.000000, 0.000000)
    velocity:         (-2.894783, 4.028385, 0.869575)
    angular velocity: (-5.507682, -0.154790, -3.019917)
    orientation:      (w=0.577350, i=-0.577350, j=0.000000, k=0.577350)

Preparing first step: implicit scheme, no bootstrap passes required.
First step may take longer than later steps.

First step completed in 0.317 s.

Step   100/2000    5.0% | t 5.000 | ETA 3m 29s | step 0.11s | KE 820.4034 | drift -3.60% | fluid 73.7577 | solid 746.6456
  Impulse FP iterations last/mean/max 8/7.65/8
Step   200/2000   10.0% | t 10.000 | ETA 3m 13s | step 0.11s | KE 816.0420 | drift -4.11% | fluid 83.4812 | solid 732.5608
  Impulse FP iterations last/mean/max 8/7.45/8
Step   300/2000   15.0% | t 15.000 | ETA 3m 0s | step 0.10s | KE 816.6753 | drift -4.04% | fluid 76.4040 | solid 740.2713
  Impulse FP iterations last/mean/max 7/7.35/8
Step   400/2000   20.0% | t 20.000 | ETA 2m 47s | step 0.11s | KE 816.6868 | drift -4.03% | fluid 73.3690 | solid 743.3178
  Impulse FP iterations last/mean/max 8/7.31/8
Step   500/2000   25.0% | t 25.000 | ETA 2m 36s | step 0.11s | KE 816.2772 | drift -4.08% | fluid 85.3627 | solid 730.9145
  Impulse FP iterations last/mean/max 7/7.28/8
Step   600/2000   30.0% | t 30.000 | ETA 2m 25s | step 0.10s | KE 816.6855 | drift -4.04% | fluid 71.5984 | solid 745.0871
  Impulse FP iterations last/mean/max 7/7.26/8
Step   700/2000   35.0% | t 35.000 | ETA 2m 15s | step 0.10s | KE 816.7580 | drift -4.03% | fluid 76.5557 | solid 740.2023
  Impulse FP iterations last/mean/max 7/7.25/8
Step   800/2000   40.0% | t 40.000 | ETA 2m 3s | step 0.10s | KE 816.4844 | drift -4.06% | fluid 79.8390 | solid 736.6454
  Impulse FP iterations last/mean/max 8/7.24/8
Step   900/2000   45.0% | t 45.000 | ETA 1m 52s | step 0.09s | KE 816.7423 | drift -4.03% | fluid 76.9307 | solid 739.8116
  Impulse FP iterations last/mean/max 7/7.23/8
Step  1000/2000   50.0% | t 50.000 | ETA 1m 40s | step 0.08s | KE 816.7187 | drift -4.03% | fluid 72.2116 | solid 744.5071
  Impulse FP iterations last/mean/max 7/7.22/8
Step  1100/2000   55.0% | t 55.000 | ETA 1m 30s | step 0.10s | KE 816.3443 | drift -4.08% | fluid 85.5545 | solid 730.7898
  Impulse FP iterations last/mean/max 7/7.22/8
Step  1200/2000   60.0% | t 60.000 | ETA 1m 20s | step 0.10s | KE 816.6691 | drift -4.04% | fluid 74.7701 | solid 741.8990
  Impulse FP iterations last/mean/max 7/7.21/8
Step  1300/2000   65.0% | t 65.000 | ETA 1m 10s | step 0.10s | KE 816.6831 | drift -4.04% | fluid 76.3159 | solid 740.3672
  Impulse FP iterations last/mean/max 7/7.21/8
Step  1400/2000   70.0% | t 70.000 | ETA 1m 0s | step 0.10s | KE 816.3481 | drift -4.07% | fluid 84.5745 | solid 731.7736
  Impulse FP iterations last/mean/max 7/7.21/8
Step  1500/2000   75.0% | t 75.000 | ETA 50s | step 0.10s | KE 816.6498 | drift -4.04% | fluid 76.2500 | solid 740.3998
  Impulse FP iterations last/mean/max 7/7.20/8
Step  1600/2000   80.0% | t 80.000 | ETA 40s | step 0.10s | KE 816.6940 | drift -4.03% | fluid 76.2862 | solid 740.4078
  Impulse FP iterations last/mean/max 7/7.20/8
Step  1700/2000   85.0% | t 85.000 | ETA 30s | step 0.11s | KE 816.3812 | drift -4.07% | fluid 82.0552 | solid 734.3259
  Impulse FP iterations last/mean/max 8/7.20/8
Step  1800/2000   90.0% | t 90.000 | ETA 20s | step 0.09s | KE 816.6603 | drift -4.04% | fluid 77.9550 | solid 738.7052
  Impulse FP iterations last/mean/max 7/7.20/8
Step  1900/2000   95.0% | t 95.000 | ETA 10s | step 0.11s | KE 816.7580 | drift -4.03% | fluid 70.9795 | solid 745.7785
  Impulse FP iterations last/mean/max 8/7.19/8
Solver finished successfully - good job!
Results saved successfully.

================== Run summary ==================
  Bodies:            2
  Triangles / nodes: 256 / 516
  Timesteps:         2000  (dt = 0.05)
  Simulated time:    0 -> 100
  First-step setup:  0.317 s
  Mean time/step:    0.0997 s  (excl. first step)
  Total wall time:   3m 19s
  Impulse FP iters last/mean/max: 7 / 7.192 / 8
  Approx impulse solves/step:     7.193
  Impulse start cache hits/direct: 1999 / 1
  Impulse global drift P/H:       6.372626e-9 / 1.455972e-2
  Impulse per-body max drift P/H: 8.828718e-9 / 4.846005e-3
  CPU cores:         256 available, 8 Rayon worker thread(s)
  Started:           2026-06-22 19:26:45
  Finished:          2026-06-22 19:30:05
  Output file:       /work/e643/e643/shared/multi_ellip/studies/two_body_paper_sweeps/runs/spheroid_1_0p7_0p7/spheroid_1_0p7_0p7_rho4_E0p55_sep5_run02_impulse_noproj/multiple_body_complete.dat
================================================
