
================ Simulation setup ================
  Run label:         /work/e643/e643/shared/multi_ellip/studies/two_body_paper_sweeps/runs/spheroid_1_0p7_0p7/spheroid_1_0p7_0p7_rho10_E11_sep5_run05_impulse_noproj/
  Started:           2026-06-24 01:18:38
  Input file:        /work/e643/e643/shared/multi_ellip/studies/two_body_paper_sweeps/runs/spheroid_1_0p7_0p7/spheroid_1_0p7_0p7_rho10_E11_sep5_run05_impulse_noproj/input.txt
  Output file:       /work/e643/e643/shared/multi_ellip/studies/two_body_paper_sweeps/runs/spheroid_1_0p7_0p7/spheroid_1_0p7_0p7_rho10_E11_sep5_run05_impulse_noproj/multiple_body_complete.dat
  Bodies:            2
  Fluid density:     1
  Mesh:              ndiv 2 -> 256 triangles / 516 nodes
  Simulated time:    0 -> 100  (dt = 0.05, ~2000 steps)
  Output cadence:    every 1 step(s)
  Output rows:       ~2001
  Progress cadence:  every 100 step(s)
  CPU cores:         256 available, 8 Rayon worker thread(s)
  Strong coupling:   disabled
  Impulse scheme:    enabled
  Hamiltonian step:  disabled
  Hamiltonian midpt: disabled
  Variational step:  disabled
  Energy projection: disabled
  Projection particular metric: Euclidean
  Fluid KE gradient: disabled  (eps = 0.001, scale = 1, linear = 1, angular = 1)
  Fluid KE discrete gradient: disabled
  Impulse pair metric correction: disabled  (mode = pair discrete-gradient, cutoff = all pairs, inner/outer = 0/0, eps = 0.001, linear scale = 1, angular scale = 0)
  Impulse metric correction: disabled  (internal load constraint = disabled)
  Impulse variational defect probe: disabled
  Impulse quadratic pressure: disabled  (scale = 1)
  Added-mass stab:   disabled
  Exact BEM geometry: disabled
  Exact singular BEM: disabled
  Legacy singular SLP diagnostic: disabled
  Phi-dot blend:     0 (off)

  Solver guidance:
    - Strong coupling: use for stiff close-coupled runs; slower but more implicit.
    - Impulse scheme: use when impulse/momentum conservation or KE drift is the focus. Recommended.
    - Added-mass stab: use for higher mesh counts (ndiv > 3) to preserve stability - deprecated.
================================================
Solver starting - good luck!

Initial state:
  Body  1
    density:          10.000000
    shape axes ratio: (1.000000, 0.700000, 0.700000)
    initial KE ratio: 11.000000
    position:         (-2.500000, 0.000000, 0.000000)
    velocity:         (1.013207, 0.366686, 0.202175)
    angular velocity: (-5.897152, 1.301599, -1.734318)
    orientation:      (w=0.655573, i=-0.192591, j=0.617430, k=0.389760)
  Body  2
    density:          10.000000
    shape axes ratio: (1.000000, 0.700000, 0.700000)
    initial KE ratio: 11.000000
    position:         (2.500000, 0.000000, 0.000000)
    velocity:         (1.190815, 0.430964, 0.237615)
    angular velocity: (2.014164, -5.716637, -1.655785)
    orientation:      (w=0.072098, i=0.032132, j=0.710361, k=0.699397)

Preparing first step: implicit scheme, no bootstrap passes required.
First step may take longer than later steps.

First step completed in 0.294 s.

Step   100/2000    5.0% | t 5.000 | ETA 3m 1s | step 0.10s | KE 815.7257 | drift +0.00% | fluid 9.1717 | solid 806.5539
  Impulse FP iterations last/mean/max 7/6.67/8
Step   200/2000   10.0% | t 10.000 | ETA 2m 52s | step 0.09s | KE 815.7947 | drift +0.01% | fluid 8.4142 | solid 807.3805
  Impulse FP iterations last/mean/max 6/6.65/8
Step   300/2000   15.0% | t 15.000 | ETA 2m 41s | step 0.09s | KE 815.8279 | drift +0.02% | fluid 8.8054 | solid 807.0225
  Impulse FP iterations last/mean/max 7/6.62/8
Step   400/2000   20.0% | t 20.000 | ETA 2m 31s | step 0.08s | KE 815.8477 | drift +0.02% | fluid 8.6751 | solid 807.1726
  Impulse FP iterations last/mean/max 6/6.62/8
Step   500/2000   25.0% | t 25.000 | ETA 2m 22s | step 0.09s | KE 815.8667 | drift +0.02% | fluid 8.6659 | solid 807.2008
  Impulse FP iterations last/mean/max 6/6.63/8
Step   600/2000   30.0% | t 30.000 | ETA 2m 12s | step 0.10s | KE 815.8639 | drift +0.02% | fluid 9.0284 | solid 806.8355
  Impulse FP iterations last/mean/max 7/6.62/8
Step   700/2000   35.0% | t 35.000 | ETA 2m 2s | step 0.09s | KE 815.8887 | drift +0.02% | fluid 8.5603 | solid 807.3283
  Impulse FP iterations last/mean/max 6/6.61/8
Step   800/2000   40.0% | t 40.000 | ETA 1m 53s | step 0.10s | KE 815.8697 | drift +0.02% | fluid 8.9268 | solid 806.9429
  Impulse FP iterations last/mean/max 7/6.61/8
Step   900/2000   45.0% | t 45.000 | ETA 1m 43s | step 0.08s | KE 815.8955 | drift +0.03% | fluid 8.2377 | solid 807.6578
  Impulse FP iterations last/mean/max 6/6.62/8
Step  1000/2000   50.0% | t 50.000 | ETA 1m 34s | step 0.10s | KE 815.8744 | drift +0.02% | fluid 9.2301 | solid 806.6443
  Impulse FP iterations last/mean/max 7/6.61/8
Step  1100/2000   55.0% | t 55.000 | ETA 1m 24s | step 0.10s | KE 815.8951 | drift +0.03% | fluid 8.7311 | solid 807.1640
  Impulse FP iterations last/mean/max 7/6.62/8
Step  1200/2000   60.0% | t 60.000 | ETA 1m 15s | step 0.10s | KE 815.8831 | drift +0.02% | fluid 8.7233 | solid 807.1598
  Impulse FP iterations last/mean/max 7/6.64/8
Step  1300/2000   65.0% | t 65.000 | ETA 1m 6s | step 0.09s | KE 815.8882 | drift +0.02% | fluid 8.5251 | solid 807.3631
  Impulse FP iterations last/mean/max 7/6.64/8
Step  1400/2000   70.0% | t 70.000 | ETA 56s | step 0.07s | KE 815.8949 | drift +0.02% | fluid 8.7226 | solid 807.1723
  Impulse FP iterations last/mean/max 6/6.64/8
Step  1500/2000   75.0% | t 75.000 | ETA 46s | step 0.10s | KE 815.8814 | drift +0.02% | fluid 9.2055 | solid 806.6758
  Impulse FP iterations last/mean/max 8/6.64/8
Step  1600/2000   80.0% | t 80.000 | ETA 37s | step 0.09s | KE 815.9041 | drift +0.03% | fluid 8.3522 | solid 807.5519
  Impulse FP iterations last/mean/max 6/6.64/8
Step  1700/2000   85.0% | t 85.000 | ETA 27s | step 0.10s | KE 815.8778 | drift +0.02% | fluid 9.0236 | solid 806.8542
  Impulse FP iterations last/mean/max 7/6.64/8
Step  1800/2000   90.0% | t 90.000 | ETA 18s | step 0.09s | KE 815.9065 | drift +0.03% | fluid 8.3586 | solid 807.5479
  Impulse FP iterations last/mean/max 6/6.63/8
Step  1900/2000   95.0% | t 95.000 | ETA 9s | step 0.09s | KE 815.8822 | drift +0.02% | fluid 9.0823 | solid 806.7998
  Impulse FP iterations last/mean/max 7/6.63/8
Solver finished successfully - good job!
Results saved successfully.

================== Run summary ==================
  Bodies:            2
  Triangles / nodes: 256 / 516
  Timesteps:         2000  (dt = 0.05)
  Simulated time:    0 -> 100
  First-step setup:  0.294 s
  Mean time/step:    0.0920 s  (excl. first step)
  Total wall time:   3m 4s
  Impulse FP iters last/mean/max: 7 / 6.634 / 8
  Approx impulse solves/step:     6.635
  Impulse start cache hits/direct: 1999 / 1
  Impulse global drift P/H:       2.995851e-9 / 3.915826e-3
  Impulse per-body max drift P/H: 7.803617e-9 / 4.100766e-3
  CPU cores:         256 available, 8 Rayon worker thread(s)
  Started:           2026-06-24 01:18:38
  Finished:          2026-06-24 01:21:42
  Output file:       /work/e643/e643/shared/multi_ellip/studies/two_body_paper_sweeps/runs/spheroid_1_0p7_0p7/spheroid_1_0p7_0p7_rho10_E11_sep5_run05_impulse_noproj/multiple_body_complete.dat
================================================
