
================ Simulation setup ================
  Run label:         /work/e643/e643/shared/multi_ellip/studies/two_body_paper_sweeps/runs/ellipsoid_1_0p8_0p6/ellipsoid_1_0p8_0p6_rho0p1_E0p55_sep8_run05_impulse_noproj/
  Started:           2026-06-24 02:05:11
  Input file:        /work/e643/e643/shared/multi_ellip/studies/two_body_paper_sweeps/runs/ellipsoid_1_0p8_0p6/ellipsoid_1_0p8_0p6_rho0p1_E0p55_sep8_run05_impulse_noproj/input.txt
  Output file:       /work/e643/e643/shared/multi_ellip/studies/two_body_paper_sweeps/runs/ellipsoid_1_0p8_0p6/ellipsoid_1_0p8_0p6_rho0p1_E0p55_sep8_run05_impulse_noproj/multiple_body_complete.dat
  Bodies:            2
  Fluid density:     1
  Mesh:              ndiv 2 -> 256 triangles / 516 nodes
  Simulated time:    0 -> 100  (dt = 0.05, ~2000 steps)
  Output cadence:    every 1 step(s)
  Output rows:       ~2001
  Progress cadence:  every 100 step(s)
  CPU cores:         256 available, 8 Rayon worker thread(s)
  Strong coupling:   disabled
  Impulse scheme:    enabled
  Hamiltonian step:  disabled
  Hamiltonian midpt: disabled
  Variational step:  disabled
  Energy projection: disabled
  Projection particular metric: Euclidean
  Fluid KE gradient: disabled  (eps = 0.001, scale = 1, linear = 1, angular = 1)
  Fluid KE discrete gradient: disabled
  Impulse pair metric correction: disabled  (mode = pair discrete-gradient, cutoff = all pairs, inner/outer = 0/0, eps = 0.001, linear scale = 1, angular scale = 0)
  Impulse metric correction: disabled  (internal load constraint = disabled)
  Impulse variational defect probe: disabled
  Impulse quadratic pressure: disabled  (scale = 1)
  Added-mass stab:   disabled
  Exact BEM geometry: disabled
  Exact singular BEM: disabled
  Legacy singular SLP diagnostic: disabled
  Phi-dot blend:     0 (off)

  Solver guidance:
    - Strong coupling: use for stiff close-coupled runs; slower but more implicit.
    - Impulse scheme: use when impulse/momentum conservation or KE drift is the focus. Recommended.
    - Added-mass stab: use for higher mesh counts (ndiv > 3) to preserve stability - deprecated.
================================================
Solver starting - good luck!

Initial state:
  Body  1
    density:          0.100000
    shape axes ratio: (1.000000, 0.800000, 0.600000)
    initial KE ratio: 0.550000
    position:         (-4.000000, 0.000000, 0.000000)
    velocity:         (4.794665, 3.365114, 1.841776)
    angular velocity: (0.195089, -2.030310, 5.942912)
    orientation:      (w=-0.234799, i=0.608921, j=-0.189543, k=0.733593)
  Body  2
    density:          0.100000
    shape axes ratio: (1.000000, 0.800000, 0.600000)
    initial KE ratio: 0.550000
    position:         (4.000000, 0.000000, 0.000000)
    velocity:         (4.077642, 2.861874, 1.566346)
    angular velocity: (5.124394, 2.647811, 2.491607)
    orientation:      (w=0.460540, i=-0.779789, j=0.211377, k=0.367629)

Preparing first step: implicit scheme, no bootstrap passes required.
First step may take longer than later steps.

First step completed in 0.476 s.

Step   100/2000    5.0% | t 5.000 | ETA 9m 43s | step 0.30s | KE 203.5777 | drift +75.39% | fluid 118.8855 | solid 84.6923
  Impulse FP iterations last/mean/max 20/21.33/26
Step   200/2000   10.0% | t 10.000 | ETA 9m 5s | step 0.30s | KE 204.1056 | drift +75.85% | fluid 131.3205 | solid 72.7851
  Impulse FP iterations last/mean/max 22/21.49/26
Step   300/2000   15.0% | t 15.000 | ETA 8m 24s | step 0.26s | KE 209.8964 | drift +80.84% | fluid 124.1334 | solid 85.7630
  Impulse FP iterations last/mean/max 22/21.54/26
Step   400/2000   20.0% | t 20.000 | ETA 7m 50s | step 0.28s | KE 216.3194 | drift +86.37% | fluid 138.9693 | solid 77.3502
  Impulse FP iterations last/mean/max 21/21.58/27
Step   500/2000   25.0% | t 25.000 | ETA 7m 16s | step 0.27s | KE 209.4162 | drift +80.42% | fluid 139.2596 | solid 70.1566
  Impulse FP iterations last/mean/max 20/21.57/27
Step   600/2000   30.0% | t 30.000 | ETA 6m 45s | step 0.28s | KE 213.3466 | drift +83.81% | fluid 143.4056 | solid 69.9410
  Impulse FP iterations last/mean/max 23/21.54/27
Step   700/2000   35.0% | t 35.000 | ETA 6m 13s | step 0.34s | KE 212.1371 | drift +82.77% | fluid 129.9701 | solid 82.1670
  Impulse FP iterations last/mean/max 22/21.54/27
Step   800/2000   40.0% | t 40.000 | ETA 5m 44s | step 0.27s | KE 207.9328 | drift +79.14% | fluid 122.1935 | solid 85.7393
  Impulse FP iterations last/mean/max 22/21.56/27
Step   900/2000   45.0% | t 45.000 | ETA 5m 15s | step 0.28s | KE 212.6518 | drift +83.21% | fluid 132.4944 | solid 80.1574
  Impulse FP iterations last/mean/max 22/21.56/27
Step  1000/2000   50.0% | t 50.000 | ETA 4m 46s | step 0.30s | KE 205.8566 | drift +77.36% | fluid 135.5054 | solid 70.3512
  Impulse FP iterations last/mean/max 23/21.55/27
Step  1100/2000   55.0% | t 55.000 | ETA 4m 17s | step 0.32s | KE 206.6946 | drift +78.08% | fluid 137.3950 | solid 69.2996
  Impulse FP iterations last/mean/max 24/21.55/27
Step  1200/2000   60.0% | t 60.000 | ETA 3m 48s | step 0.28s | KE 208.6483 | drift +79.76% | fluid 133.9298 | solid 74.7185
  Impulse FP iterations last/mean/max 23/21.55/27
Step  1300/2000   65.0% | t 65.000 | ETA 3m 19s | step 0.32s | KE 205.8930 | drift +77.39% | fluid 123.8663 | solid 82.0266
  Impulse FP iterations last/mean/max 24/21.54/27
Step  1400/2000   70.0% | t 70.000 | ETA 2m 49s | step 0.30s | KE 209.9225 | drift +80.86% | fluid 126.9065 | solid 83.0160
  Impulse FP iterations last/mean/max 22/21.54/27
Step  1500/2000   75.0% | t 75.000 | ETA 2m 21s | step 0.26s | KE 206.3063 | drift +77.74% | fluid 132.0296 | solid 74.2767
  Impulse FP iterations last/mean/max 22/21.54/27
Step  1600/2000   80.0% | t 80.000 | ETA 1m 52s | step 0.28s | KE 206.9555 | drift +78.30% | fluid 135.2228 | solid 71.7327
  Impulse FP iterations last/mean/max 23/21.54/27
Step  1700/2000   85.0% | t 85.000 | ETA 1m 23s | step 0.28s | KE 208.1629 | drift +79.34% | fluid 134.7129 | solid 73.4501
  Impulse FP iterations last/mean/max 23/21.55/27
Step  1800/2000   90.0% | t 90.000 | ETA 55s | step 0.31s | KE 205.0448 | drift +76.66% | fluid 122.5513 | solid 82.4935
  Impulse FP iterations last/mean/max 24/21.54/27
Step  1900/2000   95.0% | t 95.000 | ETA 27s | step 0.21s | KE 209.0520 | drift +80.11% | fluid 127.7380 | solid 81.3141
  Impulse FP iterations last/mean/max 21/21.54/27
Solver finished successfully - good job!
Results saved successfully.

================== Run summary ==================
  Bodies:            2
  Triangles / nodes: 256 / 516
  Timesteps:         2000  (dt = 0.05)
  Simulated time:    0 -> 100
  First-step setup:  0.476 s
  Mean time/step:    0.2744 s  (excl. first step)
  Total wall time:   9m 9s
  Impulse FP iters last/mean/max: 22 / 21.549 / 27
  Approx impulse solves/step:     21.549
  Impulse start cache hits/direct: 1999 / 1
  Impulse global drift P/H:       1.073359e-7 / 1.370275e-1
  Impulse per-body max drift P/H: 1.629634e-7 / 4.012093e-2
  CPU cores:         256 available, 8 Rayon worker thread(s)
  Started:           2026-06-24 02:05:11
  Finished:          2026-06-24 02:14:21
  Output file:       /work/e643/e643/shared/multi_ellip/studies/two_body_paper_sweeps/runs/ellipsoid_1_0p8_0p6/ellipsoid_1_0p8_0p6_rho0p1_E0p55_sep8_run05_impulse_noproj/multiple_body_complete.dat
================================================
