
================ Simulation setup ================
  Run label:         /work/e643/e643/shared/multi_ellip/studies/two_body_paper_sweeps/runs/spheroid_1_0p7_0p7/spheroid_1_0p7_0p7_rho1_E4_sep8_run01_impulse_noproj/
  Started:           2026-06-22 19:34:21
  Input file:        /work/e643/e643/shared/multi_ellip/studies/two_body_paper_sweeps/runs/spheroid_1_0p7_0p7/spheroid_1_0p7_0p7_rho1_E4_sep8_run01_impulse_noproj/input.txt
  Output file:       /work/e643/e643/shared/multi_ellip/studies/two_body_paper_sweeps/runs/spheroid_1_0p7_0p7/spheroid_1_0p7_0p7_rho1_E4_sep8_run01_impulse_noproj/multiple_body_complete.dat
  Bodies:            2
  Fluid density:     1
  Mesh:              ndiv 2 -> 256 triangles / 516 nodes
  Simulated time:    0 -> 100  (dt = 0.05, ~2000 steps)
  Output cadence:    every 1 step(s)
  Output rows:       ~2001
  Progress cadence:  every 100 step(s)
  CPU cores:         256 available, 8 Rayon worker thread(s)
  Strong coupling:   disabled
  Impulse scheme:    enabled
  Hamiltonian step:  disabled
  Hamiltonian midpt: disabled
  Variational step:  disabled
  Energy projection: disabled
  Projection particular metric: Euclidean
  Fluid KE gradient: disabled  (eps = 0.001, scale = 1, linear = 1, angular = 1)
  Fluid KE discrete gradient: disabled
  Impulse pair metric correction: disabled  (mode = pair discrete-gradient, cutoff = all pairs, inner/outer = 0/0, eps = 0.001, linear scale = 1, angular scale = 0)
  Impulse metric correction: disabled  (internal load constraint = disabled)
  Impulse variational defect probe: disabled
  Impulse quadratic pressure: disabled  (scale = 1)
  Added-mass stab:   disabled
  Exact BEM geometry: disabled
  Exact singular BEM: disabled
  Legacy singular SLP diagnostic: disabled
  Phi-dot blend:     0 (off)

  Solver guidance:
    - Strong coupling: use for stiff close-coupled runs; slower but more implicit.
    - Impulse scheme: use when impulse/momentum conservation or KE drift is the focus. Recommended.
    - Added-mass stab: use for higher mesh counts (ndiv > 3) to preserve stability - deprecated.
================================================
Solver starting - good luck!

Initial state:
  Body  1
    density:          1.000000
    shape axes ratio: (1.000000, 0.700000, 0.700000)
    initial KE ratio: 4.000000
    position:         (-4.000000, 0.000000, 0.000000)
    velocity:         (-1.558951, -0.459816, 1.020948)
    angular velocity: (-5.054051, 0.532752, -3.694748)
    orientation:      (w=0.447214, i=0.894427, j=0.000000, k=0.000000)
  Body  2
    density:          1.000000
    shape axes ratio: (1.000000, 0.700000, 0.700000)
    initial KE ratio: 4.000000
    position:         (4.000000, 0.000000, 0.000000)
    velocity:         (-1.743317, -0.514195, 1.141688)
    angular velocity: (-1.746033, 4.750996, 3.722609)
    orientation:      (w=0.707107, i=0.000000, j=0.707107, k=0.000000)

Preparing first step: implicit scheme, no bootstrap passes required.
First step may take longer than later steps.

First step completed in 0.357 s.

Step   100/2000    5.0% | t 5.000 | ETA 4m 29s | step 0.14s | KE 94.3957 | drift -1.11% | fluid 11.7686 | solid 82.6271
  Impulse FP iterations last/mean/max 9/9.88/10
Step   200/2000   10.0% | t 10.000 | ETA 4m 17s | step 0.15s | KE 96.4291 | drift +1.02% | fluid 12.2010 | solid 84.2280
  Impulse FP iterations last/mean/max 10/9.91/11
Step   300/2000   15.0% | t 15.000 | ETA 4m 21s | step 0.16s | KE 163.7858 | drift +71.58% | fluid 12.6391 | solid 151.1467
  Impulse FP iterations last/mean/max 11/10.39/13
Step   400/2000   20.0% | t 20.000 | ETA 4m 9s | step 0.17s | KE 137.3417 | drift +43.88% | fluid 12.7955 | solid 124.5463
  Impulse FP iterations last/mean/max 11/10.48/13
Step   500/2000   25.0% | t 25.000 | ETA 3m 50s | step 0.14s | KE 131.7717 | drift +38.04% | fluid 12.6173 | solid 119.1544
  Impulse FP iterations last/mean/max 10/10.38/13
Step   600/2000   30.0% | t 30.000 | ETA 3m 32s | step 0.14s | KE 130.6523 | drift +36.87% | fluid 11.3298 | solid 119.3225
  Impulse FP iterations last/mean/max 10/10.29/13
Step   700/2000   35.0% | t 35.000 | ETA 3m 15s | step 0.14s | KE 130.2356 | drift +36.43% | fluid 12.6068 | solid 117.6288
  Impulse FP iterations last/mean/max 10/10.22/13
Step   800/2000   40.0% | t 40.000 | ETA 2m 58s | step 0.14s | KE 130.1469 | drift +36.34% | fluid 12.0620 | solid 118.0849
  Impulse FP iterations last/mean/max 9/10.13/13
Step   900/2000   45.0% | t 45.000 | ETA 2m 41s | step 0.13s | KE 130.0034 | drift +36.19% | fluid 12.3846 | solid 117.6188
  Impulse FP iterations last/mean/max 9/10.04/13
Step  1000/2000   50.0% | t 50.000 | ETA 2m 25s | step 0.14s | KE 129.9752 | drift +36.16% | fluid 12.5298 | solid 117.4453
  Impulse FP iterations last/mean/max 9/9.97/13
Step  1100/2000   55.0% | t 55.000 | ETA 2m 8s | step 0.13s | KE 130.0038 | drift +36.19% | fluid 11.1512 | solid 118.8526
  Impulse FP iterations last/mean/max 10/9.91/13
Step  1200/2000   60.0% | t 60.000 | ETA 1m 52s | step 0.12s | KE 129.9033 | drift +36.08% | fluid 12.5298 | solid 117.3735
  Impulse FP iterations last/mean/max 9/9.85/13
Step  1300/2000   65.0% | t 65.000 | ETA 1m 37s | step 0.13s | KE 129.9480 | drift +36.13% | fluid 11.7520 | solid 118.1960
  Impulse FP iterations last/mean/max 10/9.81/13
Step  1400/2000   70.0% | t 70.000 | ETA 1m 23s | step 0.13s | KE 129.9064 | drift +36.09% | fluid 12.5789 | solid 117.3275
  Impulse FP iterations last/mean/max 9/9.77/13
Step  1500/2000   75.0% | t 75.000 | ETA 1m 8s | step 0.12s | KE 129.8626 | drift +36.04% | fluid 12.8171 | solid 117.0455
  Impulse FP iterations last/mean/max 9/9.74/13
Step  1600/2000   80.0% | t 80.000 | ETA 55s | step 0.14s | KE 129.9461 | drift +36.13% | fluid 11.4509 | solid 118.4952
  Impulse FP iterations last/mean/max 10/9.71/13
Step  1700/2000   85.0% | t 85.000 | ETA 41s | step 0.13s | KE 129.8779 | drift +36.06% | fluid 12.3973 | solid 117.4807
  Impulse FP iterations last/mean/max 9/9.69/13
Step  1800/2000   90.0% | t 90.000 | ETA 27s | step 0.14s | KE 129.9018 | drift +36.08% | fluid 11.3793 | solid 118.5225
  Impulse FP iterations last/mean/max 10/9.67/13
Step  1900/2000   95.0% | t 95.000 | ETA 13s | step 0.14s | KE 129.9162 | drift +36.10% | fluid 12.3597 | solid 117.5565
  Impulse FP iterations last/mean/max 9/9.64/13
Solver finished successfully - good job!
Results saved successfully.

================== Run summary ==================
  Bodies:            2
  Triangles / nodes: 256 / 516
  Timesteps:         2000  (dt = 0.05)
  Simulated time:    0 -> 100
  First-step setup:  0.357 s
  Mean time/step:    0.1364 s  (excl. first step)
  Total wall time:   4m 32s
  Impulse FP iters last/mean/max: 9 / 9.630 / 13
  Approx impulse solves/step:     9.631
  Impulse start cache hits/direct: 1999 / 1
  Impulse global drift P/H:       4.320556e-8 / 1.470077e-2
  Impulse per-body max drift P/H: 7.161579e-8 / 8.257471e-3
  CPU cores:         256 available, 8 Rayon worker thread(s)
  Started:           2026-06-22 19:34:21
  Finished:          2026-06-22 19:38:54
  Output file:       /work/e643/e643/shared/multi_ellip/studies/two_body_paper_sweeps/runs/spheroid_1_0p7_0p7/spheroid_1_0p7_0p7_rho1_E4_sep8_run01_impulse_noproj/multiple_body_complete.dat
================================================
