
================ Simulation setup ================
  Run label:         /work/e643/e643/shared/multi_ellip/studies/two_body_paper_sweeps/runs/spheroid_1_0p7_0p7/spheroid_1_0p7_0p7_rho1_E4_sep11_run05_impulse_noproj/
  Started:           2026-06-24 01:34:42
  Input file:        /work/e643/e643/shared/multi_ellip/studies/two_body_paper_sweeps/runs/spheroid_1_0p7_0p7/spheroid_1_0p7_0p7_rho1_E4_sep11_run05_impulse_noproj/input.txt
  Output file:       /work/e643/e643/shared/multi_ellip/studies/two_body_paper_sweeps/runs/spheroid_1_0p7_0p7/spheroid_1_0p7_0p7_rho1_E4_sep11_run05_impulse_noproj/multiple_body_complete.dat
  Bodies:            2
  Fluid density:     1
  Mesh:              ndiv 2 -> 256 triangles / 516 nodes
  Simulated time:    0 -> 100  (dt = 0.05, ~2000 steps)
  Output cadence:    every 1 step(s)
  Output rows:       ~2001
  Progress cadence:  every 100 step(s)
  CPU cores:         256 available, 8 Rayon worker thread(s)
  Strong coupling:   disabled
  Impulse scheme:    enabled
  Hamiltonian step:  disabled
  Hamiltonian midpt: disabled
  Variational step:  disabled
  Energy projection: disabled
  Projection particular metric: Euclidean
  Fluid KE gradient: disabled  (eps = 0.001, scale = 1, linear = 1, angular = 1)
  Fluid KE discrete gradient: disabled
  Impulse pair metric correction: disabled  (mode = pair discrete-gradient, cutoff = all pairs, inner/outer = 0/0, eps = 0.001, linear scale = 1, angular scale = 0)
  Impulse metric correction: disabled  (internal load constraint = disabled)
  Impulse variational defect probe: disabled
  Impulse quadratic pressure: disabled  (scale = 1)
  Added-mass stab:   disabled
  Exact BEM geometry: disabled
  Exact singular BEM: disabled
  Legacy singular SLP diagnostic: disabled
  Phi-dot blend:     0 (off)

  Solver guidance:
    - Strong coupling: use for stiff close-coupled runs; slower but more implicit.
    - Impulse scheme: use when impulse/momentum conservation or KE drift is the focus. Recommended.
    - Added-mass stab: use for higher mesh counts (ndiv > 3) to preserve stability - deprecated.
================================================
Solver starting - good luck!

Initial state:
  Body  1
    density:          1.000000
    shape axes ratio: (1.000000, 0.700000, 0.700000)
    initial KE ratio: 4.000000
    position:         (-5.500000, 0.000000, 0.000000)
    velocity:         (-1.835775, 0.528985, 0.241865)
    angular velocity: (4.995114, 0.672943, 3.751586)
    orientation:      (w=-0.352389, i=-0.135890, j=0.847559, k=0.372825)
  Body  2
    density:          1.000000
    shape axes ratio: (1.000000, 0.700000, 0.700000)
    initial KE ratio: 4.000000
    position:         (5.500000, 0.000000, 0.000000)
    velocity:         (-1.927697, 0.555473, 0.253975)
    angular velocity: (3.958863, -4.848132, 0.549030)
    orientation:      (w=0.074250, i=0.451945, j=-0.549530, k=-0.698748)

Preparing first step: implicit scheme, no bootstrap passes required.
First step may take longer than later steps.

First step completed in 0.366 s.

Step   100/2000    5.0% | t 5.000 | ETA 4m 26s | step 0.14s | KE 110.3424 | drift +0.32% | fluid 15.4320 | solid 94.9104
  Impulse FP iterations last/mean/max 10/9.83/10
Step   200/2000   10.0% | t 10.000 | ETA 4m 9s | step 0.12s | KE 110.3115 | drift +0.29% | fluid 15.2780 | solid 95.0335
  Impulse FP iterations last/mean/max 9/9.80/10
Step   300/2000   15.0% | t 15.000 | ETA 3m 54s | step 0.14s | KE 109.6421 | drift -0.32% | fluid 15.6740 | solid 93.9681
  Impulse FP iterations last/mean/max 10/9.77/10
Step   400/2000   20.0% | t 20.000 | ETA 3m 41s | step 0.15s | KE 108.7776 | drift -1.10% | fluid 15.6792 | solid 93.0985
  Impulse FP iterations last/mean/max 10/9.76/10
Step   500/2000   25.0% | t 25.000 | ETA 3m 27s | step 0.12s | KE 108.3192 | drift -1.52% | fluid 15.7051 | solid 92.6141
  Impulse FP iterations last/mean/max 9/9.73/10
Step   600/2000   30.0% | t 30.000 | ETA 3m 13s | step 0.14s | KE 108.6300 | drift -1.24% | fluid 16.0820 | solid 92.5479
  Impulse FP iterations last/mean/max 10/9.73/10
Step   700/2000   35.0% | t 35.000 | ETA 3m 0s | step 0.13s | KE 109.4071 | drift -0.53% | fluid 15.1886 | solid 94.2186
  Impulse FP iterations last/mean/max 9/9.74/10
Step   800/2000   40.0% | t 40.000 | ETA 2m 46s | step 0.14s | KE 109.8709 | drift -0.11% | fluid 15.3164 | solid 94.5545
  Impulse FP iterations last/mean/max 10/9.72/10
Step   900/2000   45.0% | t 45.000 | ETA 2m 32s | step 0.13s | KE 109.9643 | drift -0.03% | fluid 16.0843 | solid 93.8800
  Impulse FP iterations last/mean/max 9/9.73/10
Step  1000/2000   50.0% | t 50.000 | ETA 2m 18s | step 0.14s | KE 109.9759 | drift -0.01% | fluid 15.9745 | solid 94.0014
  Impulse FP iterations last/mean/max 10/9.71/10
Step  1100/2000   55.0% | t 55.000 | ETA 2m 4s | step 0.14s | KE 109.9654 | drift -0.02% | fluid 15.6076 | solid 94.3579
  Impulse FP iterations last/mean/max 9/9.70/10
Step  1200/2000   60.0% | t 60.000 | ETA 1m 50s | step 0.15s | KE 109.9283 | drift -0.06% | fluid 15.7292 | solid 94.1991
  Impulse FP iterations last/mean/max 10/9.69/10
Step  1300/2000   65.0% | t 65.000 | ETA 1m 36s | step 0.13s | KE 109.9116 | drift -0.07% | fluid 15.7586 | solid 94.1531
  Impulse FP iterations last/mean/max 10/9.70/10
Step  1400/2000   70.0% | t 70.000 | ETA 1m 22s | step 0.14s | KE 109.9135 | drift -0.07% | fluid 15.4272 | solid 94.4863
  Impulse FP iterations last/mean/max 10/9.68/10
Step  1500/2000   75.0% | t 75.000 | ETA 1m 8s | step 0.12s | KE 109.8934 | drift -0.09% | fluid 15.4891 | solid 94.4043
  Impulse FP iterations last/mean/max 9/9.65/10
Step  1600/2000   80.0% | t 80.000 | ETA 55s | step 0.13s | KE 109.8734 | drift -0.11% | fluid 15.8471 | solid 94.0263
  Impulse FP iterations last/mean/max 9/9.62/10
Step  1700/2000   85.0% | t 85.000 | ETA 41s | step 0.13s | KE 109.8993 | drift -0.08% | fluid 15.7358 | solid 94.1635
  Impulse FP iterations last/mean/max 9/9.60/10
Step  1800/2000   90.0% | t 90.000 | ETA 27s | step 0.13s | KE 109.9026 | drift -0.08% | fluid 15.6946 | solid 94.2080
  Impulse FP iterations last/mean/max 9/9.58/10
Step  1900/2000   95.0% | t 95.000 | ETA 13s | step 0.13s | KE 109.8410 | drift -0.14% | fluid 16.0972 | solid 93.7438
  Impulse FP iterations last/mean/max 9/9.56/10
Solver finished successfully - good job!
Results saved successfully.

================== Run summary ==================
  Bodies:            2
  Triangles / nodes: 256 / 516
  Timesteps:         2000  (dt = 0.05)
  Simulated time:    0 -> 100
  First-step setup:  0.366 s
  Mean time/step:    0.1356 s  (excl. first step)
  Total wall time:   4m 31s
  Impulse FP iters last/mean/max: 9 / 9.534 / 10
  Approx impulse solves/step:     9.535
  Impulse start cache hits/direct: 1999 / 1
  Impulse global drift P/H:       1.708287e-8 / 1.238583e-2
  Impulse per-body max drift P/H: 2.234366e-8 / 1.175984e-2
  CPU cores:         256 available, 8 Rayon worker thread(s)
  Started:           2026-06-24 01:34:42
  Finished:          2026-06-24 01:39:14
  Output file:       /work/e643/e643/shared/multi_ellip/studies/two_body_paper_sweeps/runs/spheroid_1_0p7_0p7/spheroid_1_0p7_0p7_rho1_E4_sep11_run05_impulse_noproj/multiple_body_complete.dat
================================================
