
================ Simulation setup ================
  Run label:         /work/e643/e643/shared/multi_ellip/studies/two_body_paper_sweeps/runs/ellipsoid_1_0p8_0p6/ellipsoid_1_0p8_0p6_rho10_E0p2_sep5_run04_impulse_noproj/
  Started:           2026-06-24 01:17:40
  Input file:        /work/e643/e643/shared/multi_ellip/studies/two_body_paper_sweeps/runs/ellipsoid_1_0p8_0p6/ellipsoid_1_0p8_0p6_rho10_E0p2_sep5_run04_impulse_noproj/input.txt
  Output file:       /work/e643/e643/shared/multi_ellip/studies/two_body_paper_sweeps/runs/ellipsoid_1_0p8_0p6/ellipsoid_1_0p8_0p6_rho10_E0p2_sep5_run04_impulse_noproj/multiple_body_complete.dat
  Bodies:            2
  Fluid density:     1
  Mesh:              ndiv 2 -> 256 triangles / 516 nodes
  Simulated time:    0 -> 100  (dt = 0.05, ~2000 steps)
  Output cadence:    every 1 step(s)
  Output rows:       ~2001
  Progress cadence:  every 100 step(s)
  CPU cores:         256 available, 8 Rayon worker thread(s)
  Strong coupling:   disabled
  Impulse scheme:    enabled
  Hamiltonian step:  disabled
  Hamiltonian midpt: disabled
  Variational step:  disabled
  Energy projection: disabled
  Projection particular metric: Euclidean
  Fluid KE gradient: disabled  (eps = 0.001, scale = 1, linear = 1, angular = 1)
  Fluid KE discrete gradient: disabled
  Impulse pair metric correction: disabled  (mode = pair discrete-gradient, cutoff = all pairs, inner/outer = 0/0, eps = 0.001, linear scale = 1, angular scale = 0)
  Impulse metric correction: disabled  (internal load constraint = disabled)
  Impulse variational defect probe: disabled
  Impulse quadratic pressure: disabled  (scale = 1)
  Added-mass stab:   disabled
  Exact BEM geometry: disabled
  Exact singular BEM: disabled
  Legacy singular SLP diagnostic: disabled
  Phi-dot blend:     0 (off)

  Solver guidance:
    - Strong coupling: use for stiff close-coupled runs; slower but more implicit.
    - Impulse scheme: use when impulse/momentum conservation or KE drift is the focus. Recommended.
    - Added-mass stab: use for higher mesh counts (ndiv > 3) to preserve stability - deprecated.
================================================
Solver starting - good luck!

Initial state:
  Body  1
    density:          10.000000
    shape axes ratio: (1.000000, 0.800000, 0.600000)
    initial KE ratio: 0.200000
    position:         (-2.500000, 0.000000, 0.000000)
    velocity:         (-4.023664, -6.162504, 3.201385)
    angular velocity: (-6.281581, 0.078749, -0.118137)
    orientation:      (w=-0.093792, i=0.540213, j=-0.482817, k=-0.682832)
  Body  2
    density:          10.000000
    shape axes ratio: (1.000000, 0.800000, 0.600000)
    initial KE ratio: 0.200000
    position:         (2.500000, 0.000000, 0.000000)
    velocity:         (-4.938162, -7.563117, 3.928996)
    angular velocity: (-0.254174, 4.319156, -4.556172)
    orientation:      (w=-0.048134, i=-0.675812, j=-0.567109, k=0.468346)

Preparing first step: implicit scheme, no bootstrap passes required.
First step may take longer than later steps.

First step completed in 7.007 s.

Step   100/2000    5.0% | t 5.000 | ETA 3m 15s | step 0.10s | KE 4243.3238 | drift +0.66% | fluid 188.6228 | solid 4054.7010
  Impulse FP iterations last/mean/max 7/7.23/8
Step   200/2000   10.0% | t 10.000 | ETA 3m 6s | step 0.10s | KE 4243.6993 | drift +0.67% | fluid 193.9292 | solid 4049.7701
  Impulse FP iterations last/mean/max 7/7.31/8
Step   300/2000   15.0% | t 15.000 | ETA 2m 56s | step 0.10s | KE 4244.9390 | drift +0.70% | fluid 161.5570 | solid 4083.3819
  Impulse FP iterations last/mean/max 7/7.29/8
Step   400/2000   20.0% | t 20.000 | ETA 2m 46s | step 0.10s | KE 4244.5017 | drift +0.69% | fluid 165.8088 | solid 4078.6929
  Impulse FP iterations last/mean/max 7/7.31/8
Step   500/2000   25.0% | t 25.000 | ETA 2m 35s | step 0.12s | KE 4243.8549 | drift +0.67% | fluid 174.6014 | solid 4069.2535
  Impulse FP iterations last/mean/max 8/7.32/8
Step   600/2000   30.0% | t 30.000 | ETA 2m 25s | step 0.10s | KE 4243.7802 | drift +0.67% | fluid 172.3038 | solid 4071.4764
  Impulse FP iterations last/mean/max 7/7.32/8
Step   700/2000   35.0% | t 35.000 | ETA 2m 15s | step 0.11s | KE 4244.2627 | drift +0.68% | fluid 168.4034 | solid 4075.8592
  Impulse FP iterations last/mean/max 8/7.32/8
Step   800/2000   40.0% | t 40.000 | ETA 2m 5s | step 0.10s | KE 4244.3933 | drift +0.69% | fluid 179.7023 | solid 4064.6910
  Impulse FP iterations last/mean/max 7/7.32/8
Step   900/2000   45.0% | t 45.000 | ETA 1m 54s | step 0.10s | KE 4243.4623 | drift +0.67% | fluid 209.1265 | solid 4034.3359
  Impulse FP iterations last/mean/max 7/7.32/8
Step  1000/2000   50.0% | t 50.000 | ETA 1m 44s | step 0.11s | KE 4243.8530 | drift +0.67% | fluid 198.8207 | solid 4045.0323
  Impulse FP iterations last/mean/max 8/7.32/8
Step  1100/2000   55.0% | t 55.000 | ETA 1m 33s | step 0.11s | KE 4244.0722 | drift +0.68% | fluid 186.5089 | solid 4057.5632
  Impulse FP iterations last/mean/max 7/7.32/8
Step  1200/2000   60.0% | t 60.000 | ETA 1m 23s | step 0.10s | KE 4243.9422 | drift +0.68% | fluid 188.2984 | solid 4055.6438
  Impulse FP iterations last/mean/max 7/7.32/8
Step  1300/2000   65.0% | t 65.000 | ETA 1m 12s | step 0.10s | KE 4244.1387 | drift +0.68% | fluid 182.8860 | solid 4061.2527
  Impulse FP iterations last/mean/max 7/7.33/8
Step  1400/2000   70.0% | t 70.000 | ETA 1m 2s | step 0.09s | KE 4244.5133 | drift +0.69% | fluid 173.0169 | solid 4071.4964
  Impulse FP iterations last/mean/max 7/7.33/8
Step  1500/2000   75.0% | t 75.000 | ETA 52s | step 0.11s | KE 4244.3477 | drift +0.69% | fluid 181.9349 | solid 4062.4127
  Impulse FP iterations last/mean/max 8/7.32/8
Step  1600/2000   80.0% | t 80.000 | ETA 41s | step 0.12s | KE 4243.3345 | drift +0.66% | fluid 217.3922 | solid 4025.9423
  Impulse FP iterations last/mean/max 8/7.33/8
Step  1700/2000   85.0% | t 85.000 | ETA 31s | step 0.10s | KE 4242.7985 | drift +0.65% | fluid 235.4145 | solid 4007.3840
  Impulse FP iterations last/mean/max 8/7.32/8
Step  1800/2000   90.0% | t 90.000 | ETA 20s | step 0.10s | KE 4244.3508 | drift +0.69% | fluid 189.6697 | solid 4054.6811
  Impulse FP iterations last/mean/max 7/7.32/8
Step  1900/2000   95.0% | t 95.000 | ETA 10s | step 0.10s | KE 4244.7812 | drift +0.70% | fluid 164.7531 | solid 4080.0281
  Impulse FP iterations last/mean/max 7/7.32/8
Solver finished successfully - good job!
Results saved successfully.

================== Run summary ==================
  Bodies:            2
  Triangles / nodes: 256 / 516
  Timesteps:         2000  (dt = 0.05)
  Simulated time:    0 -> 100
  First-step setup:  7.007 s
  Mean time/step:    0.1029 s  (excl. first step)
  Total wall time:   3m 32s
  Impulse FP iters last/mean/max: 8 / 7.320 / 8
  Approx impulse solves/step:     7.321
  Impulse start cache hits/direct: 1999 / 1
  Impulse global drift P/H:       1.724379e-9 / 1.718142e-2
  Impulse per-body max drift P/H: 1.806859e-9 / 3.025888e-3
  CPU cores:         256 available, 8 Rayon worker thread(s)
  Started:           2026-06-24 01:17:40
  Finished:          2026-06-24 01:21:14
  Output file:       /work/e643/e643/shared/multi_ellip/studies/two_body_paper_sweeps/runs/ellipsoid_1_0p8_0p6/ellipsoid_1_0p8_0p6_rho10_E0p2_sep5_run04_impulse_noproj/multiple_body_complete.dat
================================================
