
================ Simulation setup ================
  Run label:         /work/e643/e643/shared/multi_ellip/studies/two_body_paper_sweeps/runs/spheroid_1_0p7_0p7/spheroid_1_0p7_0p7_rho10_E0p2_sep8_run05_impulse_noproj/
  Started:           2026-06-24 01:15:05
  Input file:        /work/e643/e643/shared/multi_ellip/studies/two_body_paper_sweeps/runs/spheroid_1_0p7_0p7/spheroid_1_0p7_0p7_rho10_E0p2_sep8_run05_impulse_noproj/input.txt
  Output file:       /work/e643/e643/shared/multi_ellip/studies/two_body_paper_sweeps/runs/spheroid_1_0p7_0p7/spheroid_1_0p7_0p7_rho10_E0p2_sep8_run05_impulse_noproj/multiple_body_complete.dat
  Bodies:            2
  Fluid density:     1
  Mesh:              ndiv 2 -> 256 triangles / 516 nodes
  Simulated time:    0 -> 100  (dt = 0.05, ~2000 steps)
  Output cadence:    every 1 step(s)
  Output rows:       ~2001
  Progress cadence:  every 100 step(s)
  CPU cores:         256 available, 8 Rayon worker thread(s)
  Strong coupling:   disabled
  Impulse scheme:    enabled
  Hamiltonian step:  disabled
  Hamiltonian midpt: disabled
  Variational step:  disabled
  Energy projection: disabled
  Projection particular metric: Euclidean
  Fluid KE gradient: disabled  (eps = 0.001, scale = 1, linear = 1, angular = 1)
  Fluid KE discrete gradient: disabled
  Impulse pair metric correction: disabled  (mode = pair discrete-gradient, cutoff = all pairs, inner/outer = 0/0, eps = 0.001, linear scale = 1, angular scale = 0)
  Impulse metric correction: disabled  (internal load constraint = disabled)
  Impulse variational defect probe: disabled
  Impulse quadratic pressure: disabled  (scale = 1)
  Added-mass stab:   disabled
  Exact BEM geometry: disabled
  Exact singular BEM: disabled
  Legacy singular SLP diagnostic: disabled
  Phi-dot blend:     0 (off)

  Solver guidance:
    - Strong coupling: use for stiff close-coupled runs; slower but more implicit.
    - Impulse scheme: use when impulse/momentum conservation or KE drift is the focus. Recommended.
    - Added-mass stab: use for higher mesh counts (ndiv > 3) to preserve stability - deprecated.
================================================
Solver starting - good luck!

Initial state:
  Body  1
    density:          10.000000
    shape axes ratio: (1.000000, 0.700000, 0.700000)
    initial KE ratio: 0.200000
    position:         (-4.000000, 0.000000, 0.000000)
    velocity:         (5.788201, 3.576129, 5.114564)
    angular velocity: (5.200364, -2.616921, 2.363547)
    orientation:      (w=0.523902, i=0.384728, j=0.452270, k=0.610707)
  Body  2
    density:          10.000000
    shape axes ratio: (1.000000, 0.700000, 0.700000)
    initial KE ratio: 0.200000
    position:         (4.000000, 0.000000, 0.000000)
    velocity:         (5.403467, 3.338429, 4.774605)
    angular velocity: (6.196081, -0.510436, 0.909096)
    orientation:      (w=-0.512579, i=-0.797060, j=0.301666, k=0.104666)

Preparing first step: implicit scheme, no bootstrap passes required.
First step may take longer than later steps.

First step completed in 7.209 s.

Step   100/2000    5.0% | t 5.000 | ETA 3m 4s | step 0.10s | KE 3667.3147 | drift -0.22% | fluid 143.2641 | solid 3524.0506
  Impulse FP iterations last/mean/max 7/7.02/8
Step   200/2000   10.0% | t 10.000 | ETA 2m 57s | step 0.12s | KE 3669.4085 | drift -0.16% | fluid 184.6617 | solid 3484.7468
  Impulse FP iterations last/mean/max 8/7.06/8
Step   300/2000   15.0% | t 15.000 | ETA 2m 48s | step 0.11s | KE 3639.4547 | drift -0.98% | fluid 160.2692 | solid 3479.1855
  Impulse FP iterations last/mean/max 8/7.05/8
Step   400/2000   20.0% | t 20.000 | ETA 2m 39s | step 0.10s | KE 3615.1399 | drift -1.64% | fluid 146.8713 | solid 3468.2686
  Impulse FP iterations last/mean/max 7/7.04/8
Step   500/2000   25.0% | t 25.000 | ETA 2m 29s | step 0.10s | KE 3623.3247 | drift -1.42% | fluid 155.0645 | solid 3468.2602
  Impulse FP iterations last/mean/max 7/7.05/8
Step   600/2000   30.0% | t 30.000 | ETA 2m 19s | step 0.10s | KE 3631.1921 | drift -1.20% | fluid 178.9495 | solid 3452.2426
  Impulse FP iterations last/mean/max 7/7.06/8
Step   700/2000   35.0% | t 35.000 | ETA 2m 9s | step 0.12s | KE 3633.8069 | drift -1.13% | fluid 156.2863 | solid 3477.5206
  Impulse FP iterations last/mean/max 8/7.06/8
Step   800/2000   40.0% | t 40.000 | ETA 1m 59s | step 0.10s | KE 3632.9006 | drift -1.16% | fluid 188.6503 | solid 3444.2504
  Impulse FP iterations last/mean/max 7/7.07/8
Step   900/2000   45.0% | t 45.000 | ETA 1m 50s | step 0.09s | KE 3631.7337 | drift -1.19% | fluid 153.2125 | solid 3478.5212
  Impulse FP iterations last/mean/max 7/7.08/8
Step  1000/2000   50.0% | t 50.000 | ETA 1m 40s | step 0.10s | KE 3631.2368 | drift -1.20% | fluid 164.9109 | solid 3466.3259
  Impulse FP iterations last/mean/max 7/7.08/8
Step  1100/2000   55.0% | t 55.000 | ETA 1m 30s | step 0.10s | KE 3631.4725 | drift -1.20% | fluid 147.7951 | solid 3483.6774
  Impulse FP iterations last/mean/max 7/7.09/8
Step  1200/2000   60.0% | t 60.000 | ETA 1m 20s | step 0.10s | KE 3631.4992 | drift -1.19% | fluid 153.4630 | solid 3478.0362
  Impulse FP iterations last/mean/max 7/7.09/8
Step  1300/2000   65.0% | t 65.000 | ETA 1m 10s | step 0.12s | KE 3631.5125 | drift -1.19% | fluid 188.8760 | solid 3442.6364
  Impulse FP iterations last/mean/max 8/7.10/8
Step  1400/2000   70.0% | t 70.000 | ETA 1m 0s | step 0.09s | KE 3632.0525 | drift -1.18% | fluid 150.2878 | solid 3481.7647
  Impulse FP iterations last/mean/max 6/7.10/8
Step  1500/2000   75.0% | t 75.000 | ETA 50s | step 0.09s | KE 3631.5713 | drift -1.19% | fluid 189.1716 | solid 3442.3997
  Impulse FP iterations last/mean/max 7/7.10/8
Step  1600/2000   80.0% | t 80.000 | ETA 40s | step 0.10s | KE 3631.5555 | drift -1.19% | fluid 153.8997 | solid 3477.6558
  Impulse FP iterations last/mean/max 7/7.10/8
Step  1700/2000   85.0% | t 85.000 | ETA 30s | step 0.10s | KE 3631.6102 | drift -1.19% | fluid 149.2153 | solid 3482.3949
  Impulse FP iterations last/mean/max 7/7.11/8
Step  1800/2000   90.0% | t 90.000 | ETA 20s | step 0.10s | KE 3631.4608 | drift -1.20% | fluid 163.1224 | solid 3468.3384
  Impulse FP iterations last/mean/max 7/7.10/8
Step  1900/2000   95.0% | t 95.000 | ETA 9s | step 0.07s | KE 3631.5611 | drift -1.19% | fluid 153.0361 | solid 3478.5250
  Impulse FP iterations last/mean/max 7/7.10/8
Solver finished successfully - good job!
Results saved successfully.

================== Run summary ==================
  Bodies:            2
  Triangles / nodes: 256 / 516
  Timesteps:         2000  (dt = 0.05)
  Simulated time:    0 -> 100
  First-step setup:  7.209 s
  Mean time/step:    0.0979 s  (excl. first step)
  Total wall time:   3m 22s
  Impulse FP iters last/mean/max: 7 / 7.109 / 8
  Approx impulse solves/step:     7.109
  Impulse start cache hits/direct: 1999 / 1
  Impulse global drift P/H:       5.951836e-10 / 1.927746e-2
  Impulse per-body max drift P/H: 6.318599e-10 / 2.686812e-3
  CPU cores:         256 available, 8 Rayon worker thread(s)
  Started:           2026-06-24 01:15:05
  Finished:          2026-06-24 01:18:29
  Output file:       /work/e643/e643/shared/multi_ellip/studies/two_body_paper_sweeps/runs/spheroid_1_0p7_0p7/spheroid_1_0p7_0p7_rho10_E0p2_sep8_run05_impulse_noproj/multiple_body_complete.dat
================================================
