
================ Simulation setup ================
  Run label:         /work/e643/e643/shared/multi_ellip/studies/departing_sphericity_sweep/runs/triaxial/homogeneous/triaxial_homogeneous_eps0p1_rho1_E0p5_sep8_run10_impulse_noproj/
  Started:           2026-06-24 02:30:21
  Input file:        /work/e643/e643/shared/multi_ellip/studies/departing_sphericity_sweep/runs/triaxial/homogeneous/triaxial_homogeneous_eps0p1_rho1_E0p5_sep8_run10_impulse_noproj/input.txt
  Output file:       /work/e643/e643/shared/multi_ellip/studies/departing_sphericity_sweep/runs/triaxial/homogeneous/triaxial_homogeneous_eps0p1_rho1_E0p5_sep8_run10_impulse_noproj/multiple_body_complete.dat
  Bodies:            2
  Fluid density:     1
  Mesh:              ndiv 2 -> 256 triangles / 516 nodes
  Simulated time:    0 -> 100  (dt = 0.05, ~2000 steps)
  Output cadence:    every 1 step(s)
  Output rows:       ~2001
  Progress cadence:  every 100 step(s)
  CPU cores:         256 available, 8 Rayon worker thread(s)
  Strong coupling:   disabled
  Impulse scheme:    enabled
  Hamiltonian step:  disabled
  Hamiltonian midpt: disabled
  Variational step:  disabled
  Energy projection: disabled
  Projection particular metric: Euclidean
  Fluid KE gradient: disabled  (eps = 0.001, scale = 1, linear = 1, angular = 1)
  Fluid KE discrete gradient: disabled
  Impulse pair metric correction: disabled  (mode = pair discrete-gradient, cutoff = all pairs, inner/outer = 0/0, eps = 0.001, linear scale = 1, angular scale = 0)
  Impulse metric correction: disabled  (internal load constraint = disabled)
  Impulse variational defect probe: disabled
  Impulse quadratic pressure: disabled  (scale = 1)
  Added-mass stab:   disabled
  Exact BEM geometry: disabled
  Exact singular BEM: disabled
  Legacy singular SLP diagnostic: disabled
  Phi-dot blend:     0 (off)

  Solver guidance:
    - Strong coupling: use for stiff close-coupled runs; slower but more implicit.
    - Impulse scheme: use when impulse/momentum conservation or KE drift is the focus. Recommended.
    - Added-mass stab: use for higher mesh counts (ndiv > 3) to preserve stability - deprecated.
================================================
Solver starting - good luck!

Initial state:
  Body  1
    density:          1.000000
    shape axes ratio: (1.000000, 0.909091, 0.826446)
    initial KE ratio: 0.500000
    position:         (-4.000000, 0.000000, 0.000000)
    velocity:         (5.167467, -0.989120, 1.173975)
    angular velocity: (-6.075347, 1.596148, -0.144538)
    orientation:      (w=-0.717748, i=0.097471, j=0.352875, k=0.592298)
  Body  2
    density:          1.000000
    shape axes ratio: (1.000000, 0.909091, 0.826446)
    initial KE ratio: 0.500000
    position:         (4.000000, 0.000000, 0.000000)
    velocity:         (5.507872, -1.054278, 1.251311)
    angular velocity: (0.992104, -4.997753, -3.676494)
    orientation:      (w=-0.134690, i=0.210318, j=0.903045, k=-0.349478)

Preparing first step: implicit scheme, no bootstrap passes required.
First step may take longer than later steps.

First step completed in 0.258 s.

Step   100/2000    5.0% | t 5.000 | ETA 4m 2s | step 0.13s | KE 263.3559 | drift -1.19% | fluid 68.2557 | solid 195.1003
  Impulse FP iterations last/mean/max 9/9.00/9
Step   200/2000   10.0% | t 10.000 | ETA 3m 50s | step 0.12s | KE 261.7098 | drift -1.81% | fluid 68.9609 | solid 192.7489
  Impulse FP iterations last/mean/max 9/9.00/9
Step   300/2000   15.0% | t 15.000 | ETA 3m 38s | step 0.12s | KE 261.1815 | drift -2.01% | fluid 71.1368 | solid 190.0447
  Impulse FP iterations last/mean/max 9/9.00/9
Step   400/2000   20.0% | t 20.000 | ETA 3m 25s | step 0.13s | KE 261.2523 | drift -1.98% | fluid 69.4963 | solid 191.7560
  Impulse FP iterations last/mean/max 9/9.00/9
Step   500/2000   25.0% | t 25.000 | ETA 3m 13s | step 0.14s | KE 260.9794 | drift -2.09% | fluid 69.6510 | solid 191.3284
  Impulse FP iterations last/mean/max 9/9.00/9
Step   600/2000   30.0% | t 30.000 | ETA 3m 0s | step 0.13s | KE 261.5175 | drift -1.88% | fluid 68.0707 | solid 193.4467
  Impulse FP iterations last/mean/max 9/9.00/9
Step   700/2000   35.0% | t 35.000 | ETA 2m 47s | step 0.13s | KE 261.8411 | drift -1.76% | fluid 68.5790 | solid 193.2621
  Impulse FP iterations last/mean/max 9/9.00/9
Step   800/2000   40.0% | t 40.000 | ETA 2m 34s | step 0.13s | KE 262.0881 | drift -1.67% | fluid 69.5327 | solid 192.5554
  Impulse FP iterations last/mean/max 9/9.00/9
Step   900/2000   45.0% | t 45.000 | ETA 2m 21s | step 0.13s | KE 262.1854 | drift -1.63% | fluid 70.9220 | solid 191.2635
  Impulse FP iterations last/mean/max 9/9.00/10
Step  1000/2000   50.0% | t 50.000 | ETA 2m 8s | step 0.14s | KE 262.2965 | drift -1.59% | fluid 70.3900 | solid 191.9065
  Impulse FP iterations last/mean/max 9/9.00/10
Step  1100/2000   55.0% | t 55.000 | ETA 1m 56s | step 0.12s | KE 262.5848 | drift -1.48% | fluid 68.5458 | solid 194.0390
  Impulse FP iterations last/mean/max 9/9.00/10
Step  1200/2000   60.0% | t 60.000 | ETA 1m 43s | step 0.13s | KE 262.5860 | drift -1.48% | fluid 69.6582 | solid 192.9278
  Impulse FP iterations last/mean/max 9/9.00/10
Step  1300/2000   65.0% | t 65.000 | ETA 1m 30s | step 0.13s | KE 262.7721 | drift -1.41% | fluid 68.1552 | solid 194.6168
  Impulse FP iterations last/mean/max 9/9.00/10
Step  1400/2000   70.0% | t 70.000 | ETA 1m 17s | step 0.13s | KE 262.7282 | drift -1.43% | fluid 69.5131 | solid 193.2152
  Impulse FP iterations last/mean/max 9/9.00/10
Step  1500/2000   75.0% | t 75.000 | ETA 1m 4s | step 0.13s | KE 262.9145 | drift -1.36% | fluid 69.2490 | solid 193.6656
  Impulse FP iterations last/mean/max 9/9.00/10
Step  1600/2000   80.0% | t 80.000 | ETA 51s | step 0.13s | KE 262.9841 | drift -1.33% | fluid 69.4357 | solid 193.5484
  Impulse FP iterations last/mean/max 9/9.00/10
Step  1700/2000   85.0% | t 85.000 | ETA 38s | step 0.13s | KE 263.1034 | drift -1.29% | fluid 68.7700 | solid 194.3335
  Impulse FP iterations last/mean/max 9/9.00/10
Step  1800/2000   90.0% | t 90.000 | ETA 25s | step 0.12s | KE 262.9797 | drift -1.34% | fluid 70.0652 | solid 192.9145
  Impulse FP iterations last/mean/max 9/9.00/10
Step  1900/2000   95.0% | t 95.000 | ETA 12s | step 0.11s | KE 263.2283 | drift -1.24% | fluid 67.7678 | solid 195.4605
  Impulse FP iterations last/mean/max 9/9.00/10
Solver finished successfully - good job!
Results saved successfully.

================== Run summary ==================
  Bodies:            2
  Triangles / nodes: 256 / 516
  Timesteps:         2000  (dt = 0.05)
  Simulated time:    0 -> 100
  First-step setup:  0.258 s
  Mean time/step:    0.1271 s  (excl. first step)
  Total wall time:   4m 14s
  Impulse FP iters last/mean/max: 9 / 8.995 / 10
  Approx impulse solves/step:     8.996
  Impulse start cache hits/direct: 1999 / 1
  Impulse global drift P/H:       7.677825e-9 / 1.042043e-2
  Impulse per-body max drift P/H: 1.065797e-8 / 3.547889e-3
  CPU cores:         256 available, 8 Rayon worker thread(s)
  Started:           2026-06-24 02:30:21
  Finished:          2026-06-24 02:34:36
  Output file:       /work/e643/e643/shared/multi_ellip/studies/departing_sphericity_sweep/runs/triaxial/homogeneous/triaxial_homogeneous_eps0p1_rho1_E0p5_sep8_run10_impulse_noproj/multiple_body_complete.dat
================================================
