
================ Simulation setup ================
  Run label:         /work/e643/e643/shared/multi_ellip/studies/two_body_paper_sweeps/runs/spheroid_1_0p7_0p7/spheroid_1_0p7_0p7_rho10_E30_sep3_run02_impulse_noproj/
  Started:           2026-06-22 19:26:44
  Input file:        /work/e643/e643/shared/multi_ellip/studies/two_body_paper_sweeps/runs/spheroid_1_0p7_0p7/spheroid_1_0p7_0p7_rho10_E30_sep3_run02_impulse_noproj/input.txt
  Output file:       /work/e643/e643/shared/multi_ellip/studies/two_body_paper_sweeps/runs/spheroid_1_0p7_0p7/spheroid_1_0p7_0p7_rho10_E30_sep3_run02_impulse_noproj/multiple_body_complete.dat
  Bodies:            2
  Fluid density:     1
  Mesh:              ndiv 2 -> 256 triangles / 516 nodes
  Simulated time:    0 -> 100  (dt = 0.05, ~2000 steps)
  Output cadence:    every 1 step(s)
  Output rows:       ~2001
  Progress cadence:  every 100 step(s)
  CPU cores:         256 available, 8 Rayon worker thread(s)
  Strong coupling:   disabled
  Impulse scheme:    enabled
  Hamiltonian step:  disabled
  Hamiltonian midpt: disabled
  Variational step:  disabled
  Energy projection: disabled
  Projection particular metric: Euclidean
  Fluid KE gradient: disabled  (eps = 0.001, scale = 1, linear = 1, angular = 1)
  Fluid KE discrete gradient: disabled
  Impulse pair metric correction: disabled  (mode = pair discrete-gradient, cutoff = all pairs, inner/outer = 0/0, eps = 0.001, linear scale = 1, angular scale = 0)
  Impulse metric correction: disabled  (internal load constraint = disabled)
  Impulse variational defect probe: disabled
  Impulse quadratic pressure: disabled  (scale = 1)
  Added-mass stab:   disabled
  Exact BEM geometry: disabled
  Exact singular BEM: disabled
  Legacy singular SLP diagnostic: disabled
  Phi-dot blend:     0 (off)

  Solver guidance:
    - Strong coupling: use for stiff close-coupled runs; slower but more implicit.
    - Impulse scheme: use when impulse/momentum conservation or KE drift is the focus. Recommended.
    - Added-mass stab: use for higher mesh counts (ndiv > 3) to preserve stability - deprecated.
================================================
Solver starting - good luck!

Initial state:
  Body  1
    density:          10.000000
    shape axes ratio: (1.000000, 0.700000, 0.700000)
    initial KE ratio: 30.000000
    position:         (-1.500000, 0.000000, 0.000000)
    velocity:         (0.610289, 0.287209, 0.168849)
    angular velocity: (5.192508, -3.515677, 0.395340)
    orientation:      (w=0.577350, i=0.577350, j=0.577350, k=0.000000)
  Body  2
    density:          10.000000
    shape axes ratio: (1.000000, 0.700000, 0.700000)
    initial KE ratio: 30.000000
    position:         (1.500000, 0.000000, 0.000000)
    velocity:         (0.695251, 0.327193, 0.192355)
    angular velocity: (0.801434, 2.167054, 5.842944)
    orientation:      (w=0.577350, i=-0.577350, j=0.000000, k=0.577350)

Preparing first step: implicit scheme, no bootstrap passes required.
First step may take longer than later steps.

First step completed in 0.235 s.

Step   100/2000    5.0% | t 5.000 | ETA 3m 2s | step 0.11s | KE 802.9026 | drift -0.19% | fluid 7.2553 | solid 795.6473
  Impulse FP iterations last/mean/max 7/6.93/7
Step   200/2000   10.0% | t 10.000 | ETA 2m 55s | step 0.10s | KE 801.7301 | drift -0.34% | fluid 7.5390 | solid 794.1912
  Impulse FP iterations last/mean/max 7/6.92/7
Step   300/2000   15.0% | t 15.000 | ETA 2m 44s | step 0.10s | KE 801.0758 | drift -0.42% | fluid 7.2154 | solid 793.8605
  Impulse FP iterations last/mean/max 7/6.85/7
Step   400/2000   20.0% | t 20.000 | ETA 2m 34s | step 0.10s | KE 800.5689 | drift -0.48% | fluid 7.3040 | solid 793.2649
  Impulse FP iterations last/mean/max 7/6.79/7
Step   500/2000   25.0% | t 25.000 | ETA 2m 23s | step 0.09s | KE 800.2502 | drift -0.52% | fluid 7.4539 | solid 792.7963
  Impulse FP iterations last/mean/max 6/6.75/7
Step   600/2000   30.0% | t 30.000 | ETA 2m 14s | step 0.10s | KE 800.0217 | drift -0.55% | fluid 7.2471 | solid 792.7746
  Impulse FP iterations last/mean/max 7/6.71/8
Step   700/2000   35.0% | t 35.000 | ETA 2m 4s | step 0.09s | KE 799.8399 | drift -0.58% | fluid 7.3624 | solid 792.4775
  Impulse FP iterations last/mean/max 6/6.69/8
Step   800/2000   40.0% | t 40.000 | ETA 1m 54s | step 0.09s | KE 799.7200 | drift -0.59% | fluid 7.0883 | solid 792.6318
  Impulse FP iterations last/mean/max 6/6.67/8
Step   900/2000   45.0% | t 45.000 | ETA 1m 44s | step 0.08s | KE 799.6126 | drift -0.60% | fluid 7.0700 | solid 792.5426
  Impulse FP iterations last/mean/max 6/6.67/8
Step  1000/2000   50.0% | t 50.000 | ETA 1m 35s | step 0.09s | KE 799.5309 | drift -0.61% | fluid 7.3019 | solid 792.2290
  Impulse FP iterations last/mean/max 6/6.65/8
Step  1100/2000   55.0% | t 55.000 | ETA 1m 25s | step 0.11s | KE 799.4757 | drift -0.62% | fluid 7.1651 | solid 792.3106
  Impulse FP iterations last/mean/max 7/6.64/8
Step  1200/2000   60.0% | t 60.000 | ETA 1m 15s | step 0.09s | KE 799.4133 | drift -0.63% | fluid 7.3765 | solid 792.0368
  Impulse FP iterations last/mean/max 6/6.63/8
Step  1300/2000   65.0% | t 65.000 | ETA 1m 6s | step 0.10s | KE 799.3762 | drift -0.63% | fluid 7.2228 | solid 792.1533
  Impulse FP iterations last/mean/max 7/6.62/8
Step  1400/2000   70.0% | t 70.000 | ETA 56s | step 0.10s | KE 799.3384 | drift -0.64% | fluid 7.2401 | solid 792.0983
  Impulse FP iterations last/mean/max 7/6.61/8
Step  1500/2000   75.0% | t 75.000 | ETA 47s | step 0.10s | KE 799.3032 | drift -0.64% | fluid 7.5217 | solid 791.7814
  Impulse FP iterations last/mean/max 7/6.61/8
Step  1600/2000   80.0% | t 80.000 | ETA 37s | step 0.10s | KE 799.2867 | drift -0.64% | fluid 7.3625 | solid 791.9242
  Impulse FP iterations last/mean/max 7/6.61/8
Step  1700/2000   85.0% | t 85.000 | ETA 28s | step 0.10s | KE 799.2584 | drift -0.65% | fluid 7.5022 | solid 791.7561
  Impulse FP iterations last/mean/max 7/6.60/8
Step  1800/2000   90.0% | t 90.000 | ETA 18s | step 0.10s | KE 799.2462 | drift -0.65% | fluid 7.2738 | solid 791.9724
  Impulse FP iterations last/mean/max 7/6.60/8
Step  1900/2000   95.0% | t 95.000 | ETA 9s | step 0.10s | KE 799.2336 | drift -0.65% | fluid 7.1717 | solid 792.0619
  Impulse FP iterations last/mean/max 7/6.59/8
Solver finished successfully - good job!
Results saved successfully.

================== Run summary ==================
  Bodies:            2
  Triangles / nodes: 256 / 516
  Timesteps:         2000  (dt = 0.05)
  Simulated time:    0 -> 100
  First-step setup:  0.235 s
  Mean time/step:    0.0935 s  (excl. first step)
  Total wall time:   3m 7s
  Impulse FP iters last/mean/max: 6 / 6.587 / 8
  Approx impulse solves/step:     6.587
  Impulse start cache hits/direct: 1999 / 1
  Impulse global drift P/H:       4.292353e-9 / 2.403124e-3
  Impulse per-body max drift P/H: 7.666199e-9 / 3.020224e-3
  CPU cores:         256 available, 8 Rayon worker thread(s)
  Started:           2026-06-22 19:26:44
  Finished:          2026-06-22 19:29:51
  Output file:       /work/e643/e643/shared/multi_ellip/studies/two_body_paper_sweeps/runs/spheroid_1_0p7_0p7/spheroid_1_0p7_0p7_rho10_E30_sep3_run02_impulse_noproj/multiple_body_complete.dat
================================================
