
================ Simulation setup ================
  Run label:         /work/e643/e643/shared/multi_ellip/studies/departing_sphericity_sweep/runs/triaxial/heterogeneous_sphere/triaxial_heterogeneous_sphere_eps0p01_rho1_E0p5_sep8_run03_impulse_noproj/
  Started:           2026-06-24 02:43:22
  Input file:        /work/e643/e643/shared/multi_ellip/studies/departing_sphericity_sweep/runs/triaxial/heterogeneous_sphere/triaxial_heterogeneous_sphere_eps0p01_rho1_E0p5_sep8_run03_impulse_noproj/input.txt
  Output file:       /work/e643/e643/shared/multi_ellip/studies/departing_sphericity_sweep/runs/triaxial/heterogeneous_sphere/triaxial_heterogeneous_sphere_eps0p01_rho1_E0p5_sep8_run03_impulse_noproj/multiple_body_complete.dat
  Bodies:            2
  Fluid density:     1
  Mesh:              ndiv 2 -> 256 triangles / 516 nodes
  Simulated time:    0 -> 100  (dt = 0.05, ~2000 steps)
  Output cadence:    every 1 step(s)
  Output rows:       ~2001
  Progress cadence:  every 100 step(s)
  CPU cores:         256 available, 8 Rayon worker thread(s)
  Strong coupling:   disabled
  Impulse scheme:    enabled
  Hamiltonian step:  disabled
  Hamiltonian midpt: disabled
  Variational step:  disabled
  Energy projection: disabled
  Projection particular metric: Euclidean
  Fluid KE gradient: disabled  (eps = 0.001, scale = 1, linear = 1, angular = 1)
  Fluid KE discrete gradient: disabled
  Impulse pair metric correction: disabled  (mode = pair discrete-gradient, cutoff = all pairs, inner/outer = 0/0, eps = 0.001, linear scale = 1, angular scale = 0)
  Impulse metric correction: disabled  (internal load constraint = disabled)
  Impulse variational defect probe: disabled
  Impulse quadratic pressure: disabled  (scale = 1)
  Added-mass stab:   disabled
  Exact BEM geometry: disabled
  Exact singular BEM: disabled
  Legacy singular SLP diagnostic: disabled
  Phi-dot blend:     0 (off)

  Solver guidance:
    - Strong coupling: use for stiff close-coupled runs; slower but more implicit.
    - Impulse scheme: use when impulse/momentum conservation or KE drift is the focus. Recommended.
    - Added-mass stab: use for higher mesh counts (ndiv > 3) to preserve stability - deprecated.
================================================
Solver starting - good luck!

Initial state:
  Body  1
    density:          1.000000
    shape axes ratio: (1.000000, 0.990099, 0.980296)
    initial KE ratio: 0.500000
    position:         (-4.000000, 0.000000, 0.000000)
    velocity:         (3.669806, -3.783302, -1.984582)
    angular velocity: (-0.054095, 4.787859, 4.068402)
    orientation:      (w=0.211515, i=-0.616114, j=0.716950, k=0.248290)
  Body  2
    density:          1.000000
    shape axes ratio: (1.000000, 1.000000, 1.000000)
    initial KE ratio: 0.500000
    position:         (4.000000, 0.000000, 0.000000)
    velocity:         (3.661890, -3.775142, -1.980302)
    angular velocity: (3.349076, 1.496185, 5.101327)
    orientation:      (w=-0.589259, i=0.424003, j=0.664330, k=-0.177932)

Preparing first step: implicit scheme, no bootstrap passes required.
First step may take longer than later steps.

First step completed in 0.316 s.

Step   100/2000    5.0% | t 5.000 | ETA 3m 35s | step 0.10s | KE 278.5156 | drift +2.91% | fluid 72.2526 | solid 206.2629
  Impulse FP iterations last/mean/max 8/8.00/8
Step   200/2000   10.0% | t 10.000 | ETA 3m 19s | step 0.11s | KE 285.1607 | drift +5.36% | fluid 72.2273 | solid 212.9333
  Impulse FP iterations last/mean/max 8/8.00/8
Step   300/2000   15.0% | t 15.000 | ETA 3m 1s | step 0.10s | KE 291.3704 | drift +7.66% | fluid 72.2162 | solid 219.1542
  Impulse FP iterations last/mean/max 8/8.00/8
Step   400/2000   20.0% | t 20.000 | ETA 2m 49s | step 0.10s | KE 299.2300 | drift +10.56% | fluid 72.1489 | solid 227.0811
  Impulse FP iterations last/mean/max 8/8.00/8
Step   500/2000   25.0% | t 25.000 | ETA 2m 38s | step 0.11s | KE 312.5422 | drift +15.48% | fluid 72.2029 | solid 240.3394
  Impulse FP iterations last/mean/max 8/8.00/8
Step   600/2000   30.0% | t 30.000 | ETA 2m 29s | step 0.12s | KE 334.2366 | drift +23.49% | fluid 72.2503 | solid 261.9863
  Impulse FP iterations last/mean/max 8/8.00/8
Step   700/2000   35.0% | t 35.000 | ETA 2m 20s | step 0.12s | KE 361.8014 | drift +33.68% | fluid 72.2636 | solid 289.5378
  Impulse FP iterations last/mean/max 8/8.00/8
Step   800/2000   40.0% | t 40.000 | ETA 2m 10s | step 0.12s | KE 391.1737 | drift +44.53% | fluid 72.3044 | solid 318.8693
  Impulse FP iterations last/mean/max 8/8.00/8
Step   900/2000   45.0% | t 45.000 | ETA 2m 0s | step 0.12s | KE 420.2332 | drift +55.27% | fluid 72.2590 | solid 347.9742
  Impulse FP iterations last/mean/max 8/8.00/8
Step  1000/2000   50.0% | t 50.000 | ETA 1m 49s | step 0.11s | KE 448.2999 | drift +65.64% | fluid 72.2811 | solid 376.0188
  Impulse FP iterations last/mean/max 8/8.00/8
Step  1100/2000   55.0% | t 55.000 | ETA 1m 38s | step 0.11s | KE 475.6065 | drift +75.73% | fluid 72.2049 | solid 403.4016
  Impulse FP iterations last/mean/max 8/8.00/8
Step  1200/2000   60.0% | t 60.000 | ETA 1m 28s | step 0.11s | KE 503.1797 | drift +85.92% | fluid 72.2336 | solid 430.9461
  Impulse FP iterations last/mean/max 8/7.99/8
Step  1300/2000   65.0% | t 65.000 | ETA 1m 17s | step 0.12s | KE 533.7211 | drift +97.20% | fluid 72.1773 | solid 461.5437
  Impulse FP iterations last/mean/max 8/7.99/8
Step  1400/2000   70.0% | t 70.000 | ETA 1m 6s | step 0.11s | KE 572.5840 | drift +111.56% | fluid 72.1804 | solid 500.4037
  Impulse FP iterations last/mean/max 8/8.00/8
Step  1500/2000   75.0% | t 75.000 | ETA 55s | step 0.12s | KE 624.1418 | drift +130.61% | fluid 72.2369 | solid 551.9049
  Impulse FP iterations last/mean/max 8/8.00/8
Step  1600/2000   80.0% | t 80.000 | ETA 44s | step 0.11s | KE 684.6541 | drift +152.97% | fluid 72.2214 | solid 612.4327
  Impulse FP iterations last/mean/max 8/8.00/8
Step  1700/2000   85.0% | t 85.000 | ETA 33s | step 0.10s | KE 748.4579 | drift +176.54% | fluid 72.2804 | solid 676.1775
  Impulse FP iterations last/mean/max 8/7.99/8
Step  1800/2000   90.0% | t 90.000 | ETA 22s | step 0.11s | KE 812.7227 | drift +200.29% | fluid 72.3875 | solid 740.3352
  Impulse FP iterations last/mean/max 8/7.99/8
Step  1900/2000   95.0% | t 95.000 | ETA 10s | step 0.07s | KE 876.3396 | drift +223.79% | fluid 72.3597 | solid 803.9799
  Impulse FP iterations last/mean/max 8/7.98/8
Solver finished successfully - good job!
Results saved successfully.

================== Run summary ==================
  Bodies:            2
  Triangles / nodes: 256 / 516
  Timesteps:         2000  (dt = 0.05)
  Simulated time:    0 -> 100
  First-step setup:  0.316 s
  Mean time/step:    0.1072 s  (excl. first step)
  Total wall time:   3m 34s
  Impulse FP iters last/mean/max: 7 / 7.984 / 8
  Approx impulse solves/step:     7.985
  Impulse start cache hits/direct: 1999 / 1
  Impulse global drift P/H:       1.722964e-9 / 3.900034e-2
  Impulse per-body max drift P/H: 5.593912e-9 / 7.828801e-3
  CPU cores:         256 available, 8 Rayon worker thread(s)
  Started:           2026-06-24 02:43:22
  Finished:          2026-06-24 02:46:57
  Output file:       /work/e643/e643/shared/multi_ellip/studies/departing_sphericity_sweep/runs/triaxial/heterogeneous_sphere/triaxial_heterogeneous_sphere_eps0p01_rho1_E0p5_sep8_run03_impulse_noproj/multiple_body_complete.dat
================================================
