
================ Simulation setup ================
  Run label:         /work/e643/e643/shared/multi_ellip/studies/departing_sphericity_sweep/runs/triaxial/homogeneous/triaxial_homogeneous_eps0_rho1_E0p5_sep8_run02_impulse_noproj/
  Started:           2026-06-24 02:23:18
  Input file:        /work/e643/e643/shared/multi_ellip/studies/departing_sphericity_sweep/runs/triaxial/homogeneous/triaxial_homogeneous_eps0_rho1_E0p5_sep8_run02_impulse_noproj/input.txt
  Output file:       /work/e643/e643/shared/multi_ellip/studies/departing_sphericity_sweep/runs/triaxial/homogeneous/triaxial_homogeneous_eps0_rho1_E0p5_sep8_run02_impulse_noproj/multiple_body_complete.dat
  Bodies:            2
  Fluid density:     1
  Mesh:              ndiv 2 -> 256 triangles / 516 nodes
  Simulated time:    0 -> 100  (dt = 0.05, ~2000 steps)
  Output cadence:    every 1 step(s)
  Output rows:       ~2001
  Progress cadence:  every 100 step(s)
  CPU cores:         256 available, 8 Rayon worker thread(s)
  Strong coupling:   disabled
  Impulse scheme:    enabled
  Hamiltonian step:  disabled
  Hamiltonian midpt: disabled
  Variational step:  disabled
  Energy projection: disabled
  Projection particular metric: Euclidean
  Fluid KE gradient: disabled  (eps = 0.001, scale = 1, linear = 1, angular = 1)
  Fluid KE discrete gradient: disabled
  Impulse pair metric correction: disabled  (mode = pair discrete-gradient, cutoff = all pairs, inner/outer = 0/0, eps = 0.001, linear scale = 1, angular scale = 0)
  Impulse metric correction: disabled  (internal load constraint = disabled)
  Impulse variational defect probe: disabled
  Impulse quadratic pressure: disabled  (scale = 1)
  Added-mass stab:   disabled
  Exact BEM geometry: disabled
  Exact singular BEM: disabled
  Legacy singular SLP diagnostic: disabled
  Phi-dot blend:     0 (off)

  Solver guidance:
    - Strong coupling: use for stiff close-coupled runs; slower but more implicit.
    - Impulse scheme: use when impulse/momentum conservation or KE drift is the focus. Recommended.
    - Added-mass stab: use for higher mesh counts (ndiv > 3) to preserve stability - deprecated.
================================================
Solver starting - good luck!

Initial state:
  Body  1
    density:          1.000000
    shape axes ratio: (1.000000, 1.000000, 1.000000)
    initial KE ratio: 0.500000
    position:         (-4.000000, 0.000000, 0.000000)
    velocity:         (5.441771, 0.686332, -1.224259)
    angular velocity: (1.579665, 2.209934, -5.665622)
    orientation:      (w=-0.622891, i=-0.052370, j=0.589190, k=-0.511976)
  Body  2
    density:          1.000000
    shape axes ratio: (1.000000, 1.000000, 1.000000)
    initial KE ratio: 0.500000
    position:         (4.000000, 0.000000, 0.000000)
    velocity:         (5.441771, 0.686332, -1.224259)
    angular velocity: (-1.166354, -0.899135, -6.108158)
    orientation:      (w=-0.128441, i=0.814660, j=-0.506081, k=0.252416)

Preparing first step: implicit scheme, no bootstrap passes required.
First step may take longer than later steps.

First step completed in 0.275 s.

Step   100/2000    5.0% | t 5.000 | ETA 2m 16s | step 0.07s | KE 274.4930 | drift +1.50% | fluid 71.9939 | solid 202.4991
  Impulse FP iterations last/mean/max 5/5.08/6
Step   200/2000   10.0% | t 10.000 | ETA 2m 4s | step 0.06s | KE 279.3049 | drift +3.28% | fluid 71.9939 | solid 207.3109
  Impulse FP iterations last/mean/max 5/5.08/6
Step   300/2000   15.0% | t 15.000 | ETA 1m 53s | step 0.06s | KE 284.8696 | drift +5.34% | fluid 71.9939 | solid 212.8756
  Impulse FP iterations last/mean/max 5/5.06/6
Step   400/2000   20.0% | t 20.000 | ETA 1m 46s | step 0.07s | KE 291.1871 | drift +7.67% | fluid 71.9939 | solid 219.1932
  Impulse FP iterations last/mean/max 5/5.06/6
Step   500/2000   25.0% | t 25.000 | ETA 1m 40s | step 0.07s | KE 298.2575 | drift +10.29% | fluid 71.9939 | solid 226.2636
  Impulse FP iterations last/mean/max 5/5.06/6
Step   600/2000   30.0% | t 30.000 | ETA 1m 34s | step 0.07s | KE 306.0807 | drift +13.18% | fluid 71.9939 | solid 234.0868
  Impulse FP iterations last/mean/max 5/5.06/6
Step   700/2000   35.0% | t 35.000 | ETA 1m 28s | step 0.07s | KE 314.6567 | drift +16.35% | fluid 71.9940 | solid 242.6627
  Impulse FP iterations last/mean/max 5/5.06/6
Step   800/2000   40.0% | t 40.000 | ETA 1m 22s | step 0.07s | KE 323.9855 | drift +19.80% | fluid 71.9940 | solid 251.9916
  Impulse FP iterations last/mean/max 5/5.05/6
Step   900/2000   45.0% | t 45.000 | ETA 1m 15s | step 0.07s | KE 334.0671 | drift +23.53% | fluid 71.9940 | solid 262.0732
  Impulse FP iterations last/mean/max 5/5.05/6
Step  1000/2000   50.0% | t 50.000 | ETA 1m 9s | step 0.07s | KE 344.9017 | drift +27.54% | fluid 71.9940 | solid 272.9077
  Impulse FP iterations last/mean/max 5/5.05/6
Step  1100/2000   55.0% | t 55.000 | ETA 1m 2s | step 0.07s | KE 356.4888 | drift +31.82% | fluid 71.9940 | solid 284.4948
  Impulse FP iterations last/mean/max 5/5.05/6
Step  1200/2000   60.0% | t 60.000 | ETA 55s | step 0.07s | KE 368.8287 | drift +36.38% | fluid 71.9940 | solid 296.8347
  Impulse FP iterations last/mean/max 5/5.05/6
Step  1300/2000   65.0% | t 65.000 | ETA 48s | step 0.07s | KE 381.9214 | drift +41.23% | fluid 71.9940 | solid 309.9274
  Impulse FP iterations last/mean/max 5/5.04/6
Step  1400/2000   70.0% | t 70.000 | ETA 41s | step 0.07s | KE 395.7668 | drift +46.35% | fluid 71.9940 | solid 323.7728
  Impulse FP iterations last/mean/max 5/5.04/6
Step  1500/2000   75.0% | t 75.000 | ETA 34s | step 0.07s | KE 410.3649 | drift +51.74% | fluid 71.9940 | solid 338.3709
  Impulse FP iterations last/mean/max 5/5.04/6
Step  1600/2000   80.0% | t 80.000 | ETA 27s | step 0.07s | KE 425.7155 | drift +57.42% | fluid 71.9941 | solid 353.7215
  Impulse FP iterations last/mean/max 5/5.04/6
Step  1700/2000   85.0% | t 85.000 | ETA 20s | step 0.07s | KE 441.8191 | drift +63.37% | fluid 71.9940 | solid 369.8251
  Impulse FP iterations last/mean/max 5/5.04/6
Step  1800/2000   90.0% | t 90.000 | ETA 13s | step 0.07s | KE 458.6751 | drift +69.61% | fluid 71.9941 | solid 386.6810
  Impulse FP iterations last/mean/max 5/5.04/6
Step  1900/2000   95.0% | t 95.000 | ETA 6s | step 0.07s | KE 476.2838 | drift +76.12% | fluid 71.9941 | solid 404.2898
  Impulse FP iterations last/mean/max 5/5.04/6
Solver finished successfully - good job!
Results saved successfully.

================== Run summary ==================
  Bodies:            2
  Triangles / nodes: 256 / 516
  Timesteps:         2000  (dt = 0.05)
  Simulated time:    0 -> 100
  First-step setup:  0.275 s
  Mean time/step:    0.0700 s  (excl. first step)
  Total wall time:   2m 20s
  Impulse FP iters last/mean/max: 5 / 5.035 / 6
  Approx impulse solves/step:     5.035
  Impulse start cache hits/direct: 1999 / 1
  Impulse global drift P/H:       3.792915e-9 / 2.494399e-2
  Impulse per-body max drift P/H: 4.159401e-9 / 7.982893e-3
  CPU cores:         256 available, 8 Rayon worker thread(s)
  Started:           2026-06-24 02:23:18
  Finished:          2026-06-24 02:25:40
  Output file:       /work/e643/e643/shared/multi_ellip/studies/departing_sphericity_sweep/runs/triaxial/homogeneous/triaxial_homogeneous_eps0_rho1_E0p5_sep8_run02_impulse_noproj/multiple_body_complete.dat
================================================
