
================ Simulation setup ================
  Run label:         /work/e643/e643/shared/multi_ellip/studies/departing_sphericity_sweep/runs/triaxial/homogeneous/triaxial_homogeneous_eps0p0001_rho1_E0p5_sep8_run07_impulse_noproj/
  Started:           2026-06-24 02:23:18
  Input file:        /work/e643/e643/shared/multi_ellip/studies/departing_sphericity_sweep/runs/triaxial/homogeneous/triaxial_homogeneous_eps0p0001_rho1_E0p5_sep8_run07_impulse_noproj/input.txt
  Output file:       /work/e643/e643/shared/multi_ellip/studies/departing_sphericity_sweep/runs/triaxial/homogeneous/triaxial_homogeneous_eps0p0001_rho1_E0p5_sep8_run07_impulse_noproj/multiple_body_complete.dat
  Bodies:            2
  Fluid density:     1
  Mesh:              ndiv 2 -> 256 triangles / 516 nodes
  Simulated time:    0 -> 100  (dt = 0.05, ~2000 steps)
  Output cadence:    every 1 step(s)
  Output rows:       ~2001
  Progress cadence:  every 100 step(s)
  CPU cores:         256 available, 8 Rayon worker thread(s)
  Strong coupling:   disabled
  Impulse scheme:    enabled
  Hamiltonian step:  disabled
  Hamiltonian midpt: disabled
  Variational step:  disabled
  Energy projection: disabled
  Projection particular metric: Euclidean
  Fluid KE gradient: disabled  (eps = 0.001, scale = 1, linear = 1, angular = 1)
  Fluid KE discrete gradient: disabled
  Impulse pair metric correction: disabled  (mode = pair discrete-gradient, cutoff = all pairs, inner/outer = 0/0, eps = 0.001, linear scale = 1, angular scale = 0)
  Impulse metric correction: disabled  (internal load constraint = disabled)
  Impulse variational defect probe: disabled
  Impulse quadratic pressure: disabled  (scale = 1)
  Added-mass stab:   disabled
  Exact BEM geometry: disabled
  Exact singular BEM: disabled
  Legacy singular SLP diagnostic: disabled
  Phi-dot blend:     0 (off)

  Solver guidance:
    - Strong coupling: use for stiff close-coupled runs; slower but more implicit.
    - Impulse scheme: use when impulse/momentum conservation or KE drift is the focus. Recommended.
    - Added-mass stab: use for higher mesh counts (ndiv > 3) to preserve stability - deprecated.
================================================
Solver starting - good luck!

Initial state:
  Body  1
    density:          1.000000
    shape axes ratio: (1.000000, 0.999900, 0.999800)
    initial KE ratio: 0.500000
    position:         (-4.000000, 0.000000, 0.000000)
    velocity:         (2.051647, -5.158405, 0.873684)
    angular velocity: (-3.558478, 5.175035, -0.186196)
    orientation:      (w=-0.749346, i=0.193327, j=-0.599386, k=-0.204551)
  Body  2
    density:          1.000000
    shape axes ratio: (1.000000, 0.999900, 0.999800)
    initial KE ratio: 0.500000
    position:         (4.000000, 0.000000, 0.000000)
    velocity:         (2.051632, -5.158367, 0.873678)
    angular velocity: (4.394509, -4.396130, -0.916925)
    orientation:      (w=-0.170077, i=-0.808668, j=-0.534695, k=-0.176724)

Preparing first step: implicit scheme, no bootstrap passes required.
First step may take longer than later steps.

First step completed in 0.269 s.

Step   100/2000    5.0% | t 5.000 | ETA 2m 35s | step 0.09s | KE 270.6200 | drift -0.12% | fluid 72.5188 | solid 198.1012
  Impulse FP iterations last/mean/max 6/5.73/6
Step   200/2000   10.0% | t 10.000 | ETA 2m 26s | step 0.09s | KE 271.7653 | drift +0.30% | fluid 72.5203 | solid 199.2450
  Impulse FP iterations last/mean/max 6/5.76/6
Step   300/2000   15.0% | t 15.000 | ETA 2m 15s | step 0.07s | KE 274.3879 | drift +1.27% | fluid 72.5206 | solid 201.8673
  Impulse FP iterations last/mean/max 6/5.81/6
Step   400/2000   20.0% | t 20.000 | ETA 2m 5s | step 0.07s | KE 278.4848 | drift +2.78% | fluid 72.5198 | solid 205.9650
  Impulse FP iterations last/mean/max 6/5.84/6
Step   500/2000   25.0% | t 25.000 | ETA 1m 57s | step 0.08s | KE 284.0532 | drift +4.83% | fluid 72.5204 | solid 211.5328
  Impulse FP iterations last/mean/max 6/5.88/6
Step   600/2000   30.0% | t 30.000 | ETA 1m 50s | step 0.08s | KE 291.0912 | drift +7.43% | fluid 72.5203 | solid 218.5708
  Impulse FP iterations last/mean/max 6/5.90/6
Step   700/2000   35.0% | t 35.000 | ETA 1m 43s | step 0.09s | KE 299.5953 | drift +10.57% | fluid 72.5221 | solid 227.0732
  Impulse FP iterations last/mean/max 6/5.91/6
Step   800/2000   40.0% | t 40.000 | ETA 1m 36s | step 0.08s | KE 309.5644 | drift +14.25% | fluid 72.5187 | solid 237.0457
  Impulse FP iterations last/mean/max 6/5.92/6
Step   900/2000   45.0% | t 45.000 | ETA 1m 28s | step 0.09s | KE 320.9950 | drift +18.47% | fluid 72.5179 | solid 248.4771
  Impulse FP iterations last/mean/max 6/5.93/6
Step  1000/2000   50.0% | t 50.000 | ETA 1m 21s | step 0.08s | KE 333.8844 | drift +23.23% | fluid 72.5173 | solid 261.3671
  Impulse FP iterations last/mean/max 6/5.94/7
Step  1100/2000   55.0% | t 55.000 | ETA 1m 13s | step 0.10s | KE 348.2299 | drift +28.52% | fluid 72.5206 | solid 275.7093
  Impulse FP iterations last/mean/max 7/5.96/7
Step  1200/2000   60.0% | t 60.000 | ETA 1m 5s | step 0.08s | KE 364.0303 | drift +34.35% | fluid 72.5188 | solid 291.5114
  Impulse FP iterations last/mean/max 6/5.99/7
Step  1300/2000   65.0% | t 65.000 | ETA 58s | step 0.09s | KE 381.2812 | drift +40.72% | fluid 72.5212 | solid 308.7600
  Impulse FP iterations last/mean/max 7/6.02/7
Step  1400/2000   70.0% | t 70.000 | ETA 50s | step 0.09s | KE 399.9825 | drift +47.62% | fluid 72.5192 | solid 327.4633
  Impulse FP iterations last/mean/max 6/6.06/7
Step  1500/2000   75.0% | t 75.000 | ETA 42s | step 0.10s | KE 420.1295 | drift +55.06% | fluid 72.5195 | solid 347.6100
  Impulse FP iterations last/mean/max 7/6.09/7
Step  1600/2000   80.0% | t 80.000 | ETA 33s | step 0.09s | KE 441.7198 | drift +63.02% | fluid 72.5185 | solid 369.2013
  Impulse FP iterations last/mean/max 7/6.12/7
Step  1700/2000   85.0% | t 85.000 | ETA 25s | step 0.08s | KE 464.7522 | drift +71.52% | fluid 72.5167 | solid 392.2354
  Impulse FP iterations last/mean/max 6/6.16/7
Step  1800/2000   90.0% | t 90.000 | ETA 17s | step 0.08s | KE 489.2212 | drift +80.56% | fluid 72.5190 | solid 416.7022
  Impulse FP iterations last/mean/max 7/6.19/7
Step  1900/2000   95.0% | t 95.000 | ETA 8s | step 0.07s | KE 515.1271 | drift +90.12% | fluid 72.5183 | solid 442.6089
  Impulse FP iterations last/mean/max 7/6.23/7
Solver finished successfully - good job!
Results saved successfully.

================== Run summary ==================
  Bodies:            2
  Triangles / nodes: 256 / 516
  Timesteps:         2000  (dt = 0.05)
  Simulated time:    0 -> 100
  First-step setup:  0.269 s
  Mean time/step:    0.0847 s  (excl. first step)
  Total wall time:   2m 49s
  Impulse FP iters last/mean/max: 7 / 6.255 / 7
  Approx impulse solves/step:     6.256
  Impulse start cache hits/direct: 1999 / 1
  Impulse global drift P/H:       4.227069e-9 / 2.061928e-1
  Impulse per-body max drift P/H: 6.414913e-9 / 3.068045e-3
  CPU cores:         256 available, 8 Rayon worker thread(s)
  Started:           2026-06-24 02:23:18
  Finished:          2026-06-24 02:26:09
  Output file:       /work/e643/e643/shared/multi_ellip/studies/departing_sphericity_sweep/runs/triaxial/homogeneous/triaxial_homogeneous_eps0p0001_rho1_E0p5_sep8_run07_impulse_noproj/multiple_body_complete.dat
================================================
