
================ Simulation setup ================
  Run label:         /work/e643/e643/shared/multi_ellip/studies/departing_sphericity_sweep/runs/triaxial/homogeneous/triaxial_homogeneous_eps0p0001_rho1_E0p5_sep8_run01_impulse_noproj/
  Started:           2026-06-24 02:23:18
  Input file:        /work/e643/e643/shared/multi_ellip/studies/departing_sphericity_sweep/runs/triaxial/homogeneous/triaxial_homogeneous_eps0p0001_rho1_E0p5_sep8_run01_impulse_noproj/input.txt
  Output file:       /work/e643/e643/shared/multi_ellip/studies/departing_sphericity_sweep/runs/triaxial/homogeneous/triaxial_homogeneous_eps0p0001_rho1_E0p5_sep8_run01_impulse_noproj/multiple_body_complete.dat
  Bodies:            2
  Fluid density:     1
  Mesh:              ndiv 2 -> 256 triangles / 516 nodes
  Simulated time:    0 -> 100  (dt = 0.05, ~2000 steps)
  Output cadence:    every 1 step(s)
  Output rows:       ~2001
  Progress cadence:  every 100 step(s)
  CPU cores:         256 available, 8 Rayon worker thread(s)
  Strong coupling:   disabled
  Impulse scheme:    enabled
  Hamiltonian step:  disabled
  Hamiltonian midpt: disabled
  Variational step:  disabled
  Energy projection: disabled
  Projection particular metric: Euclidean
  Fluid KE gradient: disabled  (eps = 0.001, scale = 1, linear = 1, angular = 1)
  Fluid KE discrete gradient: disabled
  Impulse pair metric correction: disabled  (mode = pair discrete-gradient, cutoff = all pairs, inner/outer = 0/0, eps = 0.001, linear scale = 1, angular scale = 0)
  Impulse metric correction: disabled  (internal load constraint = disabled)
  Impulse variational defect probe: disabled
  Impulse quadratic pressure: disabled  (scale = 1)
  Added-mass stab:   disabled
  Exact BEM geometry: disabled
  Exact singular BEM: disabled
  Legacy singular SLP diagnostic: disabled
  Phi-dot blend:     0 (off)

  Solver guidance:
    - Strong coupling: use for stiff close-coupled runs; slower but more implicit.
    - Impulse scheme: use when impulse/momentum conservation or KE drift is the focus. Recommended.
    - Added-mass stab: use for higher mesh counts (ndiv > 3) to preserve stability - deprecated.
================================================
Solver starting - good luck!

Initial state:
  Body  1
    density:          1.000000
    shape axes ratio: (1.000000, 0.999900, 0.999800)
    initial KE ratio: 0.500000
    position:         (-4.000000, 0.000000, 0.000000)
    velocity:         (-0.656938, -5.249001, 1.897078)
    angular velocity: (3.238464, -4.653320, -2.708760)
    orientation:      (w=0.427799, i=0.665764, j=-0.444063, k=0.420184)
  Body  2
    density:          1.000000
    shape axes ratio: (1.000000, 0.999900, 0.999800)
    initial KE ratio: 0.500000
    position:         (4.000000, 0.000000, 0.000000)
    velocity:         (-0.656963, -5.249205, 1.897152)
    angular velocity: (-0.984028, -3.151929, -5.345601)
    orientation:      (w=-0.171693, i=-0.056336, j=0.906971, k=0.380462)

Preparing first step: implicit scheme, no bootstrap passes required.
First step may take longer than later steps.

First step completed in 0.215 s.

Step   100/2000    5.0% | t 5.000 | ETA 2m 37s | step 0.09s | KE 275.0625 | drift +1.48% | fluid 72.6110 | solid 202.4516
  Impulse FP iterations last/mean/max 6/6.00/6
Step   200/2000   10.0% | t 10.000 | ETA 2m 30s | step 0.08s | KE 279.2374 | drift +3.02% | fluid 72.6074 | solid 206.6300
  Impulse FP iterations last/mean/max 6/6.00/6
Step   300/2000   15.0% | t 15.000 | ETA 2m 22s | step 0.09s | KE 283.5809 | drift +4.62% | fluid 72.6067 | solid 210.9742
  Impulse FP iterations last/mean/max 6/6.00/6
Step   400/2000   20.0% | t 20.000 | ETA 2m 13s | step 0.09s | KE 288.0921 | drift +6.28% | fluid 72.6094 | solid 215.4827
  Impulse FP iterations last/mean/max 6/6.00/6
Step   500/2000   25.0% | t 25.000 | ETA 2m 5s | step 0.08s | KE 292.7705 | drift +8.01% | fluid 72.6078 | solid 220.1627
  Impulse FP iterations last/mean/max 6/6.00/6
Step   600/2000   30.0% | t 30.000 | ETA 1m 57s | step 0.09s | KE 297.6143 | drift +9.80% | fluid 72.6093 | solid 225.0051
  Impulse FP iterations last/mean/max 6/6.00/6
Step   700/2000   35.0% | t 35.000 | ETA 1m 49s | step 0.09s | KE 302.6236 | drift +11.65% | fluid 72.6067 | solid 230.0169
  Impulse FP iterations last/mean/max 6/6.00/6
Step   800/2000   40.0% | t 40.000 | ETA 1m 41s | step 0.08s | KE 307.7957 | drift +13.55% | fluid 72.6096 | solid 235.1861
  Impulse FP iterations last/mean/max 6/6.00/6
Step   900/2000   45.0% | t 45.000 | ETA 1m 32s | step 0.08s | KE 313.1310 | drift +15.52% | fluid 72.6095 | solid 240.5215
  Impulse FP iterations last/mean/max 6/6.00/6
Step  1000/2000   50.0% | t 50.000 | ETA 1m 24s | step 0.08s | KE 318.6286 | drift +17.55% | fluid 72.6067 | solid 246.0219
  Impulse FP iterations last/mean/max 6/6.00/6
Step  1100/2000   55.0% | t 55.000 | ETA 1m 15s | step 0.09s | KE 324.2859 | drift +19.64% | fluid 72.6109 | solid 251.6750
  Impulse FP iterations last/mean/max 6/6.00/6
Step  1200/2000   60.0% | t 60.000 | ETA 1m 7s | step 0.08s | KE 330.1041 | drift +21.78% | fluid 72.6087 | solid 257.4954
  Impulse FP iterations last/mean/max 6/6.00/6
Step  1300/2000   65.0% | t 65.000 | ETA 59s | step 0.09s | KE 336.0816 | drift +23.99% | fluid 72.6070 | solid 263.4747
  Impulse FP iterations last/mean/max 6/6.00/6
Step  1400/2000   70.0% | t 70.000 | ETA 50s | step 0.09s | KE 342.2167 | drift +26.25% | fluid 72.6072 | solid 269.6095
  Impulse FP iterations last/mean/max 6/6.00/6
Step  1500/2000   75.0% | t 75.000 | ETA 42s | step 0.09s | KE 348.5094 | drift +28.57% | fluid 72.6067 | solid 275.9027
  Impulse FP iterations last/mean/max 6/6.00/7
Step  1600/2000   80.0% | t 80.000 | ETA 33s | step 0.08s | KE 354.9574 | drift +30.95% | fluid 72.6101 | solid 282.3473
  Impulse FP iterations last/mean/max 6/6.00/7
Step  1700/2000   85.0% | t 85.000 | ETA 25s | step 0.08s | KE 361.5626 | drift +33.39% | fluid 72.6079 | solid 288.9547
  Impulse FP iterations last/mean/max 6/6.00/7
Step  1800/2000   90.0% | t 90.000 | ETA 16s | step 0.07s | KE 368.3214 | drift +35.88% | fluid 72.6105 | solid 295.7108
  Impulse FP iterations last/mean/max 6/6.00/7
Step  1900/2000   95.0% | t 95.000 | ETA 8s | step 0.06s | KE 375.2359 | drift +38.43% | fluid 72.6062 | solid 302.6298
  Impulse FP iterations last/mean/max 6/6.01/7
Solver finished successfully - good job!
Results saved successfully.

================== Run summary ==================
  Bodies:            2
  Triangles / nodes: 256 / 516
  Timesteps:         2000  (dt = 0.05)
  Simulated time:    0 -> 100
  First-step setup:  0.215 s
  Mean time/step:    0.0816 s  (excl. first step)
  Total wall time:   2m 43s
  Impulse FP iters last/mean/max: 6 / 6.006 / 7
  Approx impulse solves/step:     6.007
  Impulse start cache hits/direct: 1999 / 1
  Impulse global drift P/H:       1.517554e-9 / 5.433698e-3
  Impulse per-body max drift P/H: 3.101184e-9 / 6.910244e-4
  CPU cores:         256 available, 8 Rayon worker thread(s)
  Started:           2026-06-24 02:23:18
  Finished:          2026-06-24 02:26:02
  Output file:       /work/e643/e643/shared/multi_ellip/studies/departing_sphericity_sweep/runs/triaxial/homogeneous/triaxial_homogeneous_eps0p0001_rho1_E0p5_sep8_run01_impulse_noproj/multiple_body_complete.dat
================================================
