
================ Simulation setup ================
  Run label:         /work/e643/e643/shared/multi_ellip/studies/two_body_paper_sweeps/runs/spheroid_1_0p7_0p7/spheroid_1_0p7_0p7_rho0p3_E0p2_sep11_run04_impulse_noproj/
  Started:           2026-06-24 01:46:02
  Input file:        /work/e643/e643/shared/multi_ellip/studies/two_body_paper_sweeps/runs/spheroid_1_0p7_0p7/spheroid_1_0p7_0p7_rho0p3_E0p2_sep11_run04_impulse_noproj/input.txt
  Output file:       /work/e643/e643/shared/multi_ellip/studies/two_body_paper_sweeps/runs/spheroid_1_0p7_0p7/spheroid_1_0p7_0p7_rho0p3_E0p2_sep11_run04_impulse_noproj/multiple_body_complete.dat
  Bodies:            2
  Fluid density:     1
  Mesh:              ndiv 2 -> 256 triangles / 516 nodes
  Simulated time:    0 -> 100  (dt = 0.05, ~2000 steps)
  Output cadence:    every 1 step(s)
  Output rows:       ~2001
  Progress cadence:  every 100 step(s)
  CPU cores:         256 available, 8 Rayon worker thread(s)
  Strong coupling:   disabled
  Impulse scheme:    enabled
  Hamiltonian step:  disabled
  Hamiltonian midpt: disabled
  Variational step:  disabled
  Energy projection: disabled
  Projection particular metric: Euclidean
  Fluid KE gradient: disabled  (eps = 0.001, scale = 1, linear = 1, angular = 1)
  Fluid KE discrete gradient: disabled
  Impulse pair metric correction: disabled  (mode = pair discrete-gradient, cutoff = all pairs, inner/outer = 0/0, eps = 0.001, linear scale = 1, angular scale = 0)
  Impulse metric correction: disabled  (internal load constraint = disabled)
  Impulse variational defect probe: disabled
  Impulse quadratic pressure: disabled  (scale = 1)
  Added-mass stab:   disabled
  Exact BEM geometry: disabled
  Exact singular BEM: disabled
  Legacy singular SLP diagnostic: disabled
  Phi-dot blend:     0 (off)

  Solver guidance:
    - Strong coupling: use for stiff close-coupled runs; slower but more implicit.
    - Impulse scheme: use when impulse/momentum conservation or KE drift is the focus. Recommended.
    - Added-mass stab: use for higher mesh counts (ndiv > 3) to preserve stability - deprecated.
================================================
Solver starting - good luck!

Initial state:
  Body  1
    density:          0.300000
    shape axes ratio: (1.000000, 0.700000, 0.700000)
    initial KE ratio: 0.200000
    position:         (-5.500000, 0.000000, 0.000000)
    velocity:         (-5.092688, -8.119032, -1.541830)
    angular velocity: (-0.707023, -4.464893, -4.363860)
    orientation:      (w=0.195780, i=0.007416, j=0.824618, k=0.530680)
  Body  2
    density:          0.300000
    shape axes ratio: (1.000000, 0.700000, 0.700000)
    initial KE ratio: 0.200000
    position:         (5.500000, 0.000000, 0.000000)
    velocity:         (-4.970594, -7.924383, -1.504865)
    angular velocity: (-2.437267, -5.088891, 2.764296)
    orientation:      (w=0.437193, i=0.189555, j=0.744280, k=-0.467952)

Preparing first step: implicit scheme, no bootstrap passes required.
First step may take longer than later steps.

First step completed in 0.274 s.

Step   100/2000    5.0% | t 5.000 | ETA 5m 27s | step 0.19s | KE 377.9704 | drift -0.09% | fluid 238.7542 | solid 139.2162
  Impulse FP iterations last/mean/max 13/12.97/14
Step   200/2000   10.0% | t 10.000 | ETA 5m 20s | step 0.19s | KE 379.3013 | drift +0.27% | fluid 239.2023 | solid 140.0989
  Impulse FP iterations last/mean/max 13/12.96/14
Step   300/2000   15.0% | t 15.000 | ETA 5m 6s | step 0.18s | KE 378.2896 | drift -0.00% | fluid 238.8996 | solid 139.3900
  Impulse FP iterations last/mean/max 13/12.94/14
Step   400/2000   20.0% | t 20.000 | ETA 4m 50s | step 0.18s | KE 378.2548 | drift -0.01% | fluid 238.8955 | solid 139.3593
  Impulse FP iterations last/mean/max 12/12.92/14
Step   500/2000   25.0% | t 25.000 | ETA 4m 32s | step 0.18s | KE 379.2482 | drift +0.25% | fluid 239.1769 | solid 140.0713
  Impulse FP iterations last/mean/max 12/12.92/14
Step   600/2000   30.0% | t 30.000 | ETA 4m 15s | step 0.19s | KE 378.0308 | drift -0.07% | fluid 238.7156 | solid 139.3152
  Impulse FP iterations last/mean/max 13/12.93/14
Step   700/2000   35.0% | t 35.000 | ETA 3m 57s | step 0.19s | KE 378.6060 | drift +0.08% | fluid 239.1277 | solid 139.4784
  Impulse FP iterations last/mean/max 13/12.92/14
Step   800/2000   40.0% | t 40.000 | ETA 3m 39s | step 0.19s | KE 378.8957 | drift +0.16% | fluid 238.9974 | solid 139.8983
  Impulse FP iterations last/mean/max 14/12.93/14
Step   900/2000   45.0% | t 45.000 | ETA 3m 21s | step 0.19s | KE 378.2673 | drift -0.01% | fluid 238.7786 | solid 139.4887
  Impulse FP iterations last/mean/max 13/12.92/14
Step  1000/2000   50.0% | t 50.000 | ETA 3m 3s | step 0.19s | KE 378.6773 | drift +0.10% | fluid 239.2000 | solid 139.4773
  Impulse FP iterations last/mean/max 13/12.92/14
Step  1100/2000   55.0% | t 55.000 | ETA 2m 45s | step 0.18s | KE 378.4768 | drift +0.05% | fluid 238.8163 | solid 139.6605
  Impulse FP iterations last/mean/max 13/12.92/14
Step  1200/2000   60.0% | t 60.000 | ETA 2m 26s | step 0.20s | KE 378.6964 | drift +0.11% | fluid 238.9599 | solid 139.7365
  Impulse FP iterations last/mean/max 13/12.92/14
Step  1300/2000   65.0% | t 65.000 | ETA 2m 8s | step 0.19s | KE 378.4393 | drift +0.04% | fluid 239.0771 | solid 139.3622
  Impulse FP iterations last/mean/max 13/12.92/14
Step  1400/2000   70.0% | t 70.000 | ETA 1m 50s | step 0.19s | KE 378.5062 | drift +0.06% | fluid 238.8590 | solid 139.6472
  Impulse FP iterations last/mean/max 13/12.92/14
Step  1500/2000   75.0% | t 75.000 | ETA 1m 31s | step 0.18s | KE 378.8666 | drift +0.15% | fluid 239.0186 | solid 139.8480
  Impulse FP iterations last/mean/max 13/12.92/14
Step  1600/2000   80.0% | t 80.000 | ETA 1m 13s | step 0.17s | KE 378.1988 | drift -0.03% | fluid 238.9491 | solid 139.2497
  Impulse FP iterations last/mean/max 14/12.92/14
Step  1700/2000   85.0% | t 85.000 | ETA 54s | step 0.17s | KE 378.6482 | drift +0.09% | fluid 238.9787 | solid 139.6695
  Impulse FP iterations last/mean/max 13/12.92/14
Step  1800/2000   90.0% | t 90.000 | ETA 36s | step 0.15s | KE 378.7198 | drift +0.11% | fluid 238.9216 | solid 139.7982
  Impulse FP iterations last/mean/max 11/12.92/14
Step  1900/2000   95.0% | t 95.000 | ETA 17s | step 0.19s | KE 378.4255 | drift +0.03% | fluid 239.0261 | solid 139.3994
  Impulse FP iterations last/mean/max 14/12.92/14
Solver finished successfully - good job!
Results saved successfully.

================== Run summary ==================
  Bodies:            2
  Triangles / nodes: 256 / 516
  Timesteps:         2000  (dt = 0.05)
  Simulated time:    0 -> 100
  First-step setup:  0.274 s
  Mean time/step:    0.1781 s  (excl. first step)
  Total wall time:   5m 56s
  Impulse FP iters last/mean/max: 13 / 12.921 / 14
  Approx impulse solves/step:     12.921
  Impulse start cache hits/direct: 1999 / 1
  Impulse global drift P/H:       1.892254e-8 / 2.808582e-3
  Impulse per-body max drift P/H: 2.027722e-8 / 4.368768e-4
  CPU cores:         256 available, 8 Rayon worker thread(s)
  Started:           2026-06-24 01:46:02
  Finished:          2026-06-24 01:51:59
  Output file:       /work/e643/e643/shared/multi_ellip/studies/two_body_paper_sweeps/runs/spheroid_1_0p7_0p7/spheroid_1_0p7_0p7_rho0p3_E0p2_sep11_run04_impulse_noproj/multiple_body_complete.dat
================================================
