
================ Simulation setup ================
  Run label:         /work/e643/e643/shared/multi_ellip/studies/two_body_paper_sweeps/runs/ellipsoid_1_0p8_0p6/ellipsoid_1_0p8_0p6_rho0p1_E30_sep11_run05_impulse_noproj/
  Started:           2026-06-24 02:24:41
  Input file:        /work/e643/e643/shared/multi_ellip/studies/two_body_paper_sweeps/runs/ellipsoid_1_0p8_0p6/ellipsoid_1_0p8_0p6_rho0p1_E30_sep11_run05_impulse_noproj/input.txt
  Output file:       /work/e643/e643/shared/multi_ellip/studies/two_body_paper_sweeps/runs/ellipsoid_1_0p8_0p6/ellipsoid_1_0p8_0p6_rho0p1_E30_sep11_run05_impulse_noproj/multiple_body_complete.dat
  Bodies:            2
  Fluid density:     1
  Mesh:              ndiv 2 -> 256 triangles / 516 nodes
  Simulated time:    0 -> 100  (dt = 0.05, ~2000 steps)
  Output cadence:    every 1 step(s)
  Output rows:       ~2001
  Progress cadence:  every 100 step(s)
  CPU cores:         256 available, 8 Rayon worker thread(s)
  Strong coupling:   disabled
  Impulse scheme:    enabled
  Hamiltonian step:  disabled
  Hamiltonian midpt: disabled
  Variational step:  disabled
  Energy projection: disabled
  Projection particular metric: Euclidean
  Fluid KE gradient: disabled  (eps = 0.001, scale = 1, linear = 1, angular = 1)
  Fluid KE discrete gradient: disabled
  Impulse pair metric correction: disabled  (mode = pair discrete-gradient, cutoff = all pairs, inner/outer = 0/0, eps = 0.001, linear scale = 1, angular scale = 0)
  Impulse metric correction: disabled  (internal load constraint = disabled)
  Impulse variational defect probe: disabled
  Impulse quadratic pressure: disabled  (scale = 1)
  Added-mass stab:   disabled
  Exact BEM geometry: disabled
  Exact singular BEM: disabled
  Legacy singular SLP diagnostic: disabled
  Phi-dot blend:     0 (off)

  Solver guidance:
    - Strong coupling: use for stiff close-coupled runs; slower but more implicit.
    - Impulse scheme: use when impulse/momentum conservation or KE drift is the focus. Recommended.
    - Added-mass stab: use for higher mesh counts (ndiv > 3) to preserve stability - deprecated.
================================================
Solver starting - good luck!

Initial state:
  Body  1
    density:          0.100000
    shape axes ratio: (1.000000, 0.800000, 0.600000)
    initial KE ratio: 30.000000
    position:         (-5.500000, 0.000000, 0.000000)
    velocity:         (0.186462, 0.690031, -0.027295)
    angular velocity: (4.547397, 3.990969, 1.694626)
    orientation:      (w=-0.355984, i=-0.294712, j=-0.062717, k=-0.884583)
  Body  2
    density:          0.100000
    shape axes ratio: (1.000000, 0.800000, 0.600000)
    initial KE ratio: 30.000000
    position:         (5.500000, 0.000000, 0.000000)
    velocity:         (0.182979, 0.677142, -0.026785)
    angular velocity: (4.899202, 3.814495, 0.962218)
    orientation:      (w=0.678856, i=0.109645, j=0.508418, k=-0.518308)

Preparing first step: implicit scheme, no bootstrap passes required.
First step may take longer than later steps.

First step completed in 0.414 s.

Step   100/2000    5.0% | t 5.000 | ETA 8m 17s | step 0.25s | KE 18.7499 | drift +0.18% | fluid 12.1042 | solid 6.6457
  Impulse FP iterations last/mean/max 20/19.32/21
Step   200/2000   10.0% | t 10.000 | ETA 7m 47s | step 0.27s | KE 18.7091 | drift -0.04% | fluid 11.4328 | solid 7.2764
  Impulse FP iterations last/mean/max 20/19.41/22
Step   300/2000   15.0% | t 15.000 | ETA 7m 19s | step 0.26s | KE 18.6835 | drift -0.18% | fluid 11.8760 | solid 6.8075
  Impulse FP iterations last/mean/max 21/19.46/22
Step   400/2000   20.0% | t 20.000 | ETA 6m 53s | step 0.26s | KE 18.5968 | drift -0.64% | fluid 11.0378 | solid 7.5590
  Impulse FP iterations last/mean/max 20/19.55/22
Step   500/2000   25.0% | t 25.000 | ETA 6m 20s | step 0.22s | KE 18.5690 | drift -0.79% | fluid 12.0363 | solid 6.5326
  Impulse FP iterations last/mean/max 19/19.44/22
Step   600/2000   30.0% | t 30.000 | ETA 5m 53s | step 0.27s | KE 18.3950 | drift -1.72% | fluid 10.6743 | solid 7.7207
  Impulse FP iterations last/mean/max 21/19.39/22
Step   700/2000   35.0% | t 35.000 | ETA 5m 27s | step 0.22s | KE 18.3756 | drift -1.82% | fluid 12.0189 | solid 6.3567
  Impulse FP iterations last/mean/max 17/19.44/22
Step   800/2000   40.0% | t 40.000 | ETA 4m 58s | step 0.24s | KE 18.2162 | drift -2.67% | fluid 11.3063 | solid 6.9099
  Impulse FP iterations last/mean/max 20/19.39/23
Step   900/2000   45.0% | t 45.000 | ETA 4m 32s | step 0.24s | KE 18.1782 | drift -2.88% | fluid 11.2145 | solid 6.9638
  Impulse FP iterations last/mean/max 20/19.39/23
Step  1000/2000   50.0% | t 50.000 | ETA 4m 5s | step 0.22s | KE 18.1238 | drift -3.17% | fluid 11.5201 | solid 6.6038
  Impulse FP iterations last/mean/max 18/19.33/23
Step  1100/2000   55.0% | t 55.000 | ETA 3m 40s | step 0.24s | KE 18.0785 | drift -3.41% | fluid 11.2704 | solid 6.8081
  Impulse FP iterations last/mean/max 20/19.35/23
Step  1200/2000   60.0% | t 60.000 | ETA 3m 15s | step 0.22s | KE 18.0469 | drift -3.58% | fluid 11.0568 | solid 6.9902
  Impulse FP iterations last/mean/max 19/19.34/23
Step  1300/2000   65.0% | t 65.000 | ETA 2m 50s | step 0.26s | KE 18.0600 | drift -3.51% | fluid 11.5408 | solid 6.5192
  Impulse FP iterations last/mean/max 19/19.36/23
Step  1400/2000   70.0% | t 70.000 | ETA 2m 25s | step 0.22s | KE 18.0264 | drift -3.69% | fluid 10.8256 | solid 7.2008
  Impulse FP iterations last/mean/max 19/19.32/23
Step  1500/2000   75.0% | t 75.000 | ETA 2m 1s | step 0.27s | KE 18.0174 | drift -3.74% | fluid 11.0567 | solid 6.9607
  Impulse FP iterations last/mean/max 20/19.32/23
Step  1600/2000   80.0% | t 80.000 | ETA 1m 37s | step 0.27s | KE 18.0396 | drift -3.62% | fluid 11.7455 | solid 6.2941
  Impulse FP iterations last/mean/max 21/19.28/23
Step  1700/2000   85.0% | t 85.000 | ETA 1m 13s | step 0.24s | KE 17.9796 | drift -3.94% | fluid 10.8010 | solid 7.1786
  Impulse FP iterations last/mean/max 21/19.31/23
Step  1800/2000   90.0% | t 90.000 | ETA 48s | step 0.23s | KE 18.0375 | drift -3.63% | fluid 11.5605 | solid 6.4770
  Impulse FP iterations last/mean/max 19/19.27/23
Step  1900/2000   95.0% | t 95.000 | ETA 24s | step 0.21s | KE 18.0104 | drift -3.77% | fluid 11.1760 | solid 6.8344
  Impulse FP iterations last/mean/max 18/19.29/23
Solver finished successfully - good job!
Results saved successfully.

================== Run summary ==================
  Bodies:            2
  Triangles / nodes: 256 / 516
  Timesteps:         2000  (dt = 0.05)
  Simulated time:    0 -> 100
  First-step setup:  0.414 s
  Mean time/step:    0.2416 s  (excl. first step)
  Total wall time:   8m 3s
  Impulse FP iters last/mean/max: 21 / 19.294 / 23
  Approx impulse solves/step:     19.294
  Impulse start cache hits/direct: 1999 / 1
  Impulse global drift P/H:       1.700674e-7 / 4.232021e-2
  Impulse per-body max drift P/H: 2.568541e-7 / 2.217873e-2
  CPU cores:         256 available, 8 Rayon worker thread(s)
  Started:           2026-06-24 02:24:41
  Finished:          2026-06-24 02:32:45
  Output file:       /work/e643/e643/shared/multi_ellip/studies/two_body_paper_sweeps/runs/ellipsoid_1_0p8_0p6/ellipsoid_1_0p8_0p6_rho0p1_E30_sep11_run05_impulse_noproj/multiple_body_complete.dat
================================================
