
================ Simulation setup ================
  Run label:         /work/e643/e643/shared/multi_ellip/studies/departing_sphericity_sweep/runs/triaxial/heterogeneous_sphere/triaxial_heterogeneous_sphere_eps0p001_rho1_E0p5_sep8_run06_impulse_noproj/
  Started:           2026-06-24 02:43:21
  Input file:        /work/e643/e643/shared/multi_ellip/studies/departing_sphericity_sweep/runs/triaxial/heterogeneous_sphere/triaxial_heterogeneous_sphere_eps0p001_rho1_E0p5_sep8_run06_impulse_noproj/input.txt
  Output file:       /work/e643/e643/shared/multi_ellip/studies/departing_sphericity_sweep/runs/triaxial/heterogeneous_sphere/triaxial_heterogeneous_sphere_eps0p001_rho1_E0p5_sep8_run06_impulse_noproj/multiple_body_complete.dat
  Bodies:            2
  Fluid density:     1
  Mesh:              ndiv 2 -> 256 triangles / 516 nodes
  Simulated time:    0 -> 100  (dt = 0.05, ~2000 steps)
  Output cadence:    every 1 step(s)
  Output rows:       ~2001
  Progress cadence:  every 100 step(s)
  CPU cores:         256 available, 8 Rayon worker thread(s)
  Strong coupling:   disabled
  Impulse scheme:    enabled
  Hamiltonian step:  disabled
  Hamiltonian midpt: disabled
  Variational step:  disabled
  Energy projection: disabled
  Projection particular metric: Euclidean
  Fluid KE gradient: disabled  (eps = 0.001, scale = 1, linear = 1, angular = 1)
  Fluid KE discrete gradient: disabled
  Impulse pair metric correction: disabled  (mode = pair discrete-gradient, cutoff = all pairs, inner/outer = 0/0, eps = 0.001, linear scale = 1, angular scale = 0)
  Impulse metric correction: disabled  (internal load constraint = disabled)
  Impulse variational defect probe: disabled
  Impulse quadratic pressure: disabled  (scale = 1)
  Added-mass stab:   disabled
  Exact BEM geometry: disabled
  Exact singular BEM: disabled
  Legacy singular SLP diagnostic: disabled
  Phi-dot blend:     0 (off)

  Solver guidance:
    - Strong coupling: use for stiff close-coupled runs; slower but more implicit.
    - Impulse scheme: use when impulse/momentum conservation or KE drift is the focus. Recommended.
    - Added-mass stab: use for higher mesh counts (ndiv > 3) to preserve stability - deprecated.
================================================
Solver starting - good luck!

Initial state:
  Body  1
    density:          1.000000
    shape axes ratio: (1.000000, 0.999001, 0.998003)
    initial KE ratio: 0.500000
    position:         (-4.000000, 0.000000, 0.000000)
    velocity:         (-2.425409, -0.903307, -4.987506)
    angular velocity: (4.655413, -2.713003, -3.231898)
    orientation:      (w=-0.269693, i=-0.902894, j=0.164203, k=0.291693)
  Body  2
    density:          1.000000
    shape axes ratio: (1.000000, 1.000000, 1.000000)
    initial KE ratio: 0.500000
    position:         (4.000000, 0.000000, 0.000000)
    velocity:         (-2.425753, -0.903435, -4.988212)
    angular velocity: (-3.221200, -5.356665, 0.639089)
    orientation:      (w=-0.808699, i=0.000067, j=-0.153854, k=-0.567746)

Preparing first step: implicit scheme, no bootstrap passes required.
First step may take longer than later steps.

First step completed in 0.215 s.

Step   100/2000    5.0% | t 5.000 | ETA 3m 0s | step 0.10s | KE 262.2155 | drift -3.21% | fluid 72.5258 | solid 189.6897
  Impulse FP iterations last/mean/max 7/7.00/7
Step   200/2000   10.0% | t 10.000 | ETA 2m 53s | step 0.10s | KE 255.3135 | drift -5.76% | fluid 72.5271 | solid 182.7864
  Impulse FP iterations last/mean/max 7/7.00/7
Step   300/2000   15.0% | t 15.000 | ETA 2m 44s | step 0.09s | KE 250.2126 | drift -7.64% | fluid 72.5185 | solid 177.6940
  Impulse FP iterations last/mean/max 7/7.00/7
Step   400/2000   20.0% | t 20.000 | ETA 2m 35s | step 0.10s | KE 246.9061 | drift -8.87% | fluid 72.5355 | solid 174.3706
  Impulse FP iterations last/mean/max 7/7.00/7
Step   500/2000   25.0% | t 25.000 | ETA 2m 25s | step 0.10s | KE 245.4005 | drift -9.42% | fluid 72.5223 | solid 172.8782
  Impulse FP iterations last/mean/max 7/7.00/7
Step   600/2000   30.0% | t 30.000 | ETA 2m 16s | step 0.09s | KE 245.6951 | drift -9.31% | fluid 72.5341 | solid 173.1609
  Impulse FP iterations last/mean/max 7/7.00/7
Step   700/2000   35.0% | t 35.000 | ETA 2m 6s | step 0.10s | KE 247.8013 | drift -8.53% | fluid 72.5337 | solid 175.2676
  Impulse FP iterations last/mean/max 7/7.00/7
Step   800/2000   40.0% | t 40.000 | ETA 1m 57s | step 0.10s | KE 251.7280 | drift -7.09% | fluid 72.5209 | solid 179.2071
  Impulse FP iterations last/mean/max 7/7.00/7
Step   900/2000   45.0% | t 45.000 | ETA 1m 47s | step 0.09s | KE 257.4802 | drift -4.96% | fluid 72.5224 | solid 184.9577
  Impulse FP iterations last/mean/max 7/7.00/7
Step  1000/2000   50.0% | t 50.000 | ETA 1m 37s | step 0.10s | KE 265.0639 | drift -2.16% | fluid 72.5361 | solid 192.5278
  Impulse FP iterations last/mean/max 7/7.00/7
Step  1100/2000   55.0% | t 55.000 | ETA 1m 27s | step 0.09s | KE 274.4901 | drift +1.32% | fluid 72.5270 | solid 201.9631
  Impulse FP iterations last/mean/max 7/7.00/7
Step  1200/2000   60.0% | t 60.000 | ETA 1m 16s | step 0.09s | KE 285.7575 | drift +5.48% | fluid 72.5219 | solid 213.2356
  Impulse FP iterations last/mean/max 7/7.01/8
Step  1300/2000   65.0% | t 65.000 | ETA 1m 6s | step 0.09s | KE 298.8656 | drift +10.31% | fluid 72.5269 | solid 226.3387
  Impulse FP iterations last/mean/max 7/7.04/8
Step  1400/2000   70.0% | t 70.000 | ETA 57s | step 0.10s | KE 313.8142 | drift +15.83% | fluid 72.5367 | solid 241.2775
  Impulse FP iterations last/mean/max 8/7.07/8
Step  1500/2000   75.0% | t 75.000 | ETA 48s | step 0.10s | KE 330.6080 | drift +22.03% | fluid 72.5239 | solid 258.0842
  Impulse FP iterations last/mean/max 7/7.10/8
Step  1600/2000   80.0% | t 80.000 | ETA 38s | step 0.10s | KE 349.2336 | drift +28.90% | fluid 72.5245 | solid 276.7091
  Impulse FP iterations last/mean/max 7/7.13/8
Step  1700/2000   85.0% | t 85.000 | ETA 29s | step 0.12s | KE 369.6855 | drift +36.45% | fluid 72.5337 | solid 297.1519
  Impulse FP iterations last/mean/max 8/7.16/8
Step  1800/2000   90.0% | t 90.000 | ETA 19s | step 0.12s | KE 391.9702 | drift +44.68% | fluid 72.5189 | solid 319.4514
  Impulse FP iterations last/mean/max 8/7.18/8
Step  1900/2000   95.0% | t 95.000 | ETA 9s | step 0.10s | KE 416.0570 | drift +53.57% | fluid 72.5366 | solid 343.5204
  Impulse FP iterations last/mean/max 8/7.21/8
Solver finished successfully - good job!
Results saved successfully.

================== Run summary ==================
  Bodies:            2
  Triangles / nodes: 256 / 516
  Timesteps:         2000  (dt = 0.05)
  Simulated time:    0 -> 100
  First-step setup:  0.215 s
  Mean time/step:    0.0989 s  (excl. first step)
  Total wall time:   3m 17s
  Impulse FP iters last/mean/max: 8 / 7.237 / 8
  Approx impulse solves/step:     7.237
  Impulse start cache hits/direct: 1999 / 1
  Impulse global drift P/H:       6.169630e-9 / 2.603435e-2
  Impulse per-body max drift P/H: 1.129489e-8 / 2.371488e-3
  CPU cores:         256 available, 8 Rayon worker thread(s)
  Started:           2026-06-24 02:43:21
  Finished:          2026-06-24 02:46:39
  Output file:       /work/e643/e643/shared/multi_ellip/studies/departing_sphericity_sweep/runs/triaxial/heterogeneous_sphere/triaxial_heterogeneous_sphere_eps0p001_rho1_E0p5_sep8_run06_impulse_noproj/multiple_body_complete.dat
================================================
