
================ Simulation setup ================
  Run label:         /work/e643/e643/shared/multi_ellip/studies/departing_sphericity_sweep/runs/spheroid_oblate/homogeneous/spheroid_oblate_homogeneous_eps0p003_rho1_E0p5_sep8_run06_impulse_noproj/
  Started:           2026-06-24 02:26:25
  Input file:        /work/e643/e643/shared/multi_ellip/studies/departing_sphericity_sweep/runs/spheroid_oblate/homogeneous/spheroid_oblate_homogeneous_eps0p003_rho1_E0p5_sep8_run06_impulse_noproj/input.txt
  Output file:       /work/e643/e643/shared/multi_ellip/studies/departing_sphericity_sweep/runs/spheroid_oblate/homogeneous/spheroid_oblate_homogeneous_eps0p003_rho1_E0p5_sep8_run06_impulse_noproj/multiple_body_complete.dat
  Bodies:            2
  Fluid density:     1
  Mesh:              ndiv 2 -> 256 triangles / 516 nodes
  Simulated time:    0 -> 100  (dt = 0.05, ~2000 steps)
  Output cadence:    every 1 step(s)
  Output rows:       ~2001
  Progress cadence:  every 100 step(s)
  CPU cores:         256 available, 8 Rayon worker thread(s)
  Strong coupling:   disabled
  Impulse scheme:    enabled
  Hamiltonian step:  disabled
  Hamiltonian midpt: disabled
  Variational step:  disabled
  Energy projection: disabled
  Projection particular metric: Euclidean
  Fluid KE gradient: disabled  (eps = 0.001, scale = 1, linear = 1, angular = 1)
  Fluid KE discrete gradient: disabled
  Impulse pair metric correction: disabled  (mode = pair discrete-gradient, cutoff = all pairs, inner/outer = 0/0, eps = 0.001, linear scale = 1, angular scale = 0)
  Impulse metric correction: disabled  (internal load constraint = disabled)
  Impulse variational defect probe: disabled
  Impulse quadratic pressure: disabled  (scale = 1)
  Added-mass stab:   disabled
  Exact BEM geometry: disabled
  Exact singular BEM: disabled
  Legacy singular SLP diagnostic: disabled
  Phi-dot blend:     0 (off)

  Solver guidance:
    - Strong coupling: use for stiff close-coupled runs; slower but more implicit.
    - Impulse scheme: use when impulse/momentum conservation or KE drift is the focus. Recommended.
    - Added-mass stab: use for higher mesh counts (ndiv > 3) to preserve stability - deprecated.
================================================
Solver starting - good luck!

Initial state:
  Body  1
    density:          1.000000
    shape axes ratio: (1.000000, 1.000000, 0.991054)
    initial KE ratio: 0.500000
    position:         (-4.000000, 0.000000, 0.000000)
    velocity:         (3.023356, 0.627788, 4.701393)
    angular velocity: (-3.316220, 2.789851, -4.549487)
    orientation:      (w=0.694737, i=-0.327807, j=-0.560265, k=-0.309818)
  Body  2
    density:          1.000000
    shape axes ratio: (1.000000, 1.000000, 0.991054)
    initial KE ratio: 0.500000
    position:         (4.000000, 0.000000, 0.000000)
    velocity:         (3.023296, 0.627776, 4.701300)
    angular velocity: (-0.010782, 4.353736, -4.530263)
    orientation:      (w=-0.088856, i=-0.864866, j=0.289820, k=-0.400144)

Preparing first step: implicit scheme, no bootstrap passes required.
First step may take longer than later steps.

First step completed in 0.224 s.

Step   100/2000    5.0% | t 5.000 | ETA 3m 16s | step 0.09s | KE 284.5216 | drift +5.08% | fluid 72.3227 | solid 212.1989
  Impulse FP iterations last/mean/max 7/7.85/8
Step   200/2000   10.0% | t 10.000 | ETA 3m 5s | step 0.11s | KE 300.9951 | drift +11.16% | fluid 72.3355 | solid 228.6596
  Impulse FP iterations last/mean/max 8/7.76/8
Step   300/2000   15.0% | t 15.000 | ETA 2m 54s | step 0.11s | KE 320.3670 | drift +18.31% | fluid 72.2833 | solid 248.0836
  Impulse FP iterations last/mean/max 8/7.72/8
Step   400/2000   20.0% | t 20.000 | ETA 2m 43s | step 0.10s | KE 342.8555 | drift +26.62% | fluid 72.3110 | solid 270.5445
  Impulse FP iterations last/mean/max 8/7.68/8
Step   500/2000   25.0% | t 25.000 | ETA 2m 33s | step 0.09s | KE 368.7175 | drift +36.17% | fluid 72.2143 | solid 296.5032
  Impulse FP iterations last/mean/max 7/7.67/8
Step   600/2000   30.0% | t 30.000 | ETA 2m 22s | step 0.10s | KE 398.0851 | drift +47.02% | fluid 72.3259 | solid 325.7591
  Impulse FP iterations last/mean/max 8/7.65/8
Step   700/2000   35.0% | t 35.000 | ETA 2m 12s | step 0.09s | KE 431.3181 | drift +59.29% | fluid 72.2307 | solid 359.0875
  Impulse FP iterations last/mean/max 7/7.62/8
Step   800/2000   40.0% | t 40.000 | ETA 2m 1s | step 0.09s | KE 468.5605 | drift +73.04% | fluid 72.4127 | solid 396.1478
  Impulse FP iterations last/mean/max 7/7.59/8
Step   900/2000   45.0% | t 45.000 | ETA 1m 51s | step 0.10s | KE 510.1951 | drift +88.42% | fluid 72.3822 | solid 437.8129
  Impulse FP iterations last/mean/max 8/7.56/8
Step  1000/2000   50.0% | t 50.000 | ETA 1m 40s | step 0.10s | KE 556.5256 | drift +105.53% | fluid 72.2822 | solid 484.2434
  Impulse FP iterations last/mean/max 7/7.54/8
Step  1100/2000   55.0% | t 55.000 | ETA 1m 30s | step 0.09s | KE 607.7500 | drift +124.45% | fluid 72.2603 | solid 535.4897
  Impulse FP iterations last/mean/max 7/7.50/8
Step  1200/2000   60.0% | t 60.000 | ETA 1m 20s | step 0.10s | KE 664.1090 | drift +145.26% | fluid 72.4087 | solid 591.7003
  Impulse FP iterations last/mean/max 7/7.46/8
Step  1300/2000   65.0% | t 65.000 | ETA 1m 9s | step 0.10s | KE 726.1651 | drift +168.18% | fluid 72.3154 | solid 653.8497
  Impulse FP iterations last/mean/max 7/7.44/8
Step  1400/2000   70.0% | t 70.000 | ETA 59s | step 0.10s | KE 793.9821 | drift +193.22% | fluid 72.3375 | solid 721.6445
  Impulse FP iterations last/mean/max 7/7.41/8
Step  1500/2000   75.0% | t 75.000 | ETA 49s | step 0.10s | KE 867.9907 | drift +220.55% | fluid 72.4392 | solid 795.5515
  Impulse FP iterations last/mean/max 7/7.39/8
Step  1600/2000   80.0% | t 80.000 | ETA 39s | step 0.09s | KE 948.9109 | drift +250.44% | fluid 72.2348 | solid 876.6761
  Impulse FP iterations last/mean/max 7/7.37/8
Step  1700/2000   85.0% | t 85.000 | ETA 29s | step 0.10s | KE 1036.5480 | drift +282.80% | fluid 72.2820 | solid 964.2660
  Impulse FP iterations last/mean/max 7/7.35/8
Step  1800/2000   90.0% | t 90.000 | ETA 19s | step 0.09s | KE 1131.3921 | drift +317.83% | fluid 72.4133 | solid 1058.9789
  Impulse FP iterations last/mean/max 7/7.34/8
Step  1900/2000   95.0% | t 95.000 | ETA 9s | step 0.09s | KE 1234.1151 | drift +355.77% | fluid 72.4207 | solid 1161.6944
  Impulse FP iterations last/mean/max 7/7.33/8
Solver finished successfully - good job!
Results saved successfully.

================== Run summary ==================
  Bodies:            2
  Triangles / nodes: 256 / 516
  Timesteps:         2000  (dt = 0.05)
  Simulated time:    0 -> 100
  First-step setup:  0.224 s
  Mean time/step:    0.0983 s  (excl. first step)
  Total wall time:   3m 16s
  Impulse FP iters last/mean/max: 7 / 7.317 / 8
  Approx impulse solves/step:     7.318
  Impulse start cache hits/direct: 1999 / 1
  Impulse global drift P/H:       2.611726e-8 / 8.705128e-2
  Impulse per-body max drift P/H: 3.511424e-8 / 7.942834e-3
  CPU cores:         256 available, 8 Rayon worker thread(s)
  Started:           2026-06-24 02:26:25
  Finished:          2026-06-24 02:29:42
  Output file:       /work/e643/e643/shared/multi_ellip/studies/departing_sphericity_sweep/runs/spheroid_oblate/homogeneous/spheroid_oblate_homogeneous_eps0p003_rho1_E0p5_sep8_run06_impulse_noproj/multiple_body_complete.dat
================================================
