
================ Simulation setup ================
  Run label:         /work/e643/e643/shared/multi_ellip/studies/multibody_convergence_sweep/runs/periodic_both_spheroid_1_0p7_0p7_rho4_E1_sep5_nd3_dt0p05/
  Started:           2026-06-22 19:37:47
  Input file:        /work/e643/e643/shared/multi_ellip/studies/multibody_convergence_sweep/runs/periodic_both_spheroid_1_0p7_0p7_rho4_E1_sep5_nd3_dt0p05/input.txt
  Output file:       /work/e643/e643/shared/multi_ellip/studies/multibody_convergence_sweep/runs/periodic_both_spheroid_1_0p7_0p7_rho4_E1_sep5_nd3_dt0p05/multiple_body_complete.dat
  Bodies:            2
  Fluid density:     1
  Mesh:              ndiv 3 -> 1024 triangles / 2052 nodes
  Simulated time:    0 -> 10  (dt = 0.05, ~200 steps)
  Output cadence:    every 1 step(s)
  Output rows:       ~201
  Progress cadence:  every 20 step(s)
  CPU cores:         256 available, 16 Rayon worker thread(s)
  Strong coupling:   disabled
  Impulse scheme:    enabled
  Hamiltonian step:  disabled
  Hamiltonian midpt: disabled
  Variational step:  disabled
  Energy projection: disabled
  Projection particular metric: Euclidean
  Fluid KE gradient: disabled  (eps = 0.001, scale = 1, linear = 1, angular = 1)
  Fluid KE discrete gradient: disabled
  Impulse pair metric correction: disabled  (mode = pair discrete-gradient, cutoff = all pairs, inner/outer = 0/0, eps = 0.001, linear scale = 1, angular scale = 0)
  Impulse metric correction: disabled  (internal load constraint = disabled)
  Impulse variational defect probe: disabled
  Impulse quadratic pressure: disabled  (scale = 1)
  Added-mass stab:   disabled
  Exact BEM geometry: disabled
  Exact singular BEM: disabled
  Legacy singular SLP diagnostic: disabled
  Phi-dot blend:     0 (off)

  Solver guidance:
    - Strong coupling: use for stiff close-coupled runs; slower but more implicit.
    - Impulse scheme: use when impulse/momentum conservation or KE drift is the focus. Recommended.
    - Added-mass stab: use for higher mesh counts (ndiv > 3) to preserve stability - deprecated.
================================================
Solver starting - good luck!

Initial state:
  Body  1
    density:          4.000000
    shape axes ratio: (1.000000, 0.700000, 0.700000)
    initial KE ratio: 1.000000
    position:         (-2.500000, 0.000000, 0.000000)
    velocity:         (3.057051, -1.835058, -2.413849)
    angular velocity: (-1.538902, -5.583488, -2.436157)
    orientation:      (w=0.447214, i=0.894427, j=0.000000, k=0.000000)
  Body  2
    density:          4.000000
    shape axes ratio: (1.000000, 0.700000, 0.700000)
    initial KE ratio: 1.000000
    position:         (2.500000, 0.000000, 0.000000)
    velocity:         (3.050909, -1.831371, -2.408999)
    angular velocity: (-1.679803, -3.263710, -5.099497)
    orientation:      (w=0.707107, i=0.000000, j=0.707107, k=0.000000)

Preparing first step: implicit scheme, no bootstrap passes required.
First step may take longer than later steps.

First step completed in 2.581 s.

Step    20/200    10.0% | t 1.000 | ETA 2m 45s | step 1.08s | KE 634.7178 | drift +0.46% | fluid 45.6657 | solid 589.0521
  Impulse FP iterations last/mean/max 8/8.00/8
Step    40/200    20.0% | t 2.000 | ETA 2m 28s | step 0.87s | KE 637.3666 | drift +0.87% | fluid 46.0122 | solid 591.3544
  Impulse FP iterations last/mean/max 8/7.95/8
Step    60/200    30.0% | t 3.000 | ETA 2m 6s | step 0.90s | KE 640.0549 | drift +1.30% | fluid 44.3126 | solid 595.7423
  Impulse FP iterations last/mean/max 8/7.93/8
Step    80/200    40.0% | t 4.000 | ETA 1m 47s | step 0.89s | KE 643.0053 | drift +1.77% | fluid 39.5657 | solid 603.4396
  Impulse FP iterations last/mean/max 8/7.92/8
Step   100/200    50.0% | t 5.000 | ETA 1m 29s | step 0.81s | KE 645.8072 | drift +2.21% | fluid 47.4841 | solid 598.3232
  Impulse FP iterations last/mean/max 7/7.91/8
Step   120/200    60.0% | t 6.000 | ETA 1m 11s | step 0.90s | KE 648.5489 | drift +2.64% | fluid 49.2571 | solid 599.2919
  Impulse FP iterations last/mean/max 8/7.91/8
Step   140/200    70.0% | t 7.000 | ETA 53s | step 0.92s | KE 650.8125 | drift +3.00% | fluid 50.9178 | solid 599.8947
  Impulse FP iterations last/mean/max 8/7.90/8
Step   160/200    80.0% | t 8.000 | ETA 35s | step 0.80s | KE 652.8861 | drift +3.33% | fluid 47.3670 | solid 605.5191
  Impulse FP iterations last/mean/max 8/7.88/8
Step   180/200    90.0% | t 9.000 | ETA 17s | step 0.80s | KE 654.9806 | drift +3.66% | fluid 41.1347 | solid 613.8458
  Impulse FP iterations last/mean/max 8/7.86/8
Solver finished successfully - good job!
Results saved successfully.

================== Run summary ==================
  Bodies:            2
  Triangles / nodes: 1024 / 2052
  Timesteps:         200  (dt = 0.05)
  Simulated time:    0 -> 10
  First-step setup:  2.581 s
  Mean time/step:    0.8618 s  (excl. first step)
  Total wall time:   2m 54s
  Impulse FP iters last/mean/max: 8 / 7.860 / 8
  Approx impulse solves/step:     7.865
  Impulse start cache hits/direct: 199 / 1
  Impulse global drift P/H:       7.503880e-10 / 5.735933e-3
  Impulse per-body max drift P/H: 1.630653e-9 / 3.370574e-3
  CPU cores:         256 available, 16 Rayon worker thread(s)
  Started:           2026-06-22 19:37:47
  Finished:          2026-06-22 19:40:41
  Output file:       /work/e643/e643/shared/multi_ellip/studies/multibody_convergence_sweep/runs/periodic_both_spheroid_1_0p7_0p7_rho4_E1_sep5_nd3_dt0p05/multiple_body_complete.dat
================================================
