
================ Simulation setup ================
  Run label:         /work/e643/e643/shared/multi_ellip/studies/departing_sphericity_sweep/runs/spheroid_oblate/homogeneous/spheroid_oblate_homogeneous_eps0p0001_rho1_E0p5_sep8_run03_impulse_noproj/
  Started:           2026-06-24 02:23:12
  Input file:        /work/e643/e643/shared/multi_ellip/studies/departing_sphericity_sweep/runs/spheroid_oblate/homogeneous/spheroid_oblate_homogeneous_eps0p0001_rho1_E0p5_sep8_run03_impulse_noproj/input.txt
  Output file:       /work/e643/e643/shared/multi_ellip/studies/departing_sphericity_sweep/runs/spheroid_oblate/homogeneous/spheroid_oblate_homogeneous_eps0p0001_rho1_E0p5_sep8_run03_impulse_noproj/multiple_body_complete.dat
  Bodies:            2
  Fluid density:     1
  Mesh:              ndiv 2 -> 256 triangles / 516 nodes
  Simulated time:    0 -> 100  (dt = 0.05, ~2000 steps)
  Output cadence:    every 1 step(s)
  Output rows:       ~2001
  Progress cadence:  every 100 step(s)
  CPU cores:         256 available, 8 Rayon worker thread(s)
  Strong coupling:   disabled
  Impulse scheme:    enabled
  Hamiltonian step:  disabled
  Hamiltonian midpt: disabled
  Variational step:  disabled
  Energy projection: disabled
  Projection particular metric: Euclidean
  Fluid KE gradient: disabled  (eps = 0.001, scale = 1, linear = 1, angular = 1)
  Fluid KE discrete gradient: disabled
  Impulse pair metric correction: disabled  (mode = pair discrete-gradient, cutoff = all pairs, inner/outer = 0/0, eps = 0.001, linear scale = 1, angular scale = 0)
  Impulse metric correction: disabled  (internal load constraint = disabled)
  Impulse variational defect probe: disabled
  Impulse quadratic pressure: disabled  (scale = 1)
  Added-mass stab:   disabled
  Exact BEM geometry: disabled
  Exact singular BEM: disabled
  Legacy singular SLP diagnostic: disabled
  Phi-dot blend:     0 (off)

  Solver guidance:
    - Strong coupling: use for stiff close-coupled runs; slower but more implicit.
    - Impulse scheme: use when impulse/momentum conservation or KE drift is the focus. Recommended.
    - Added-mass stab: use for higher mesh counts (ndiv > 3) to preserve stability - deprecated.
================================================
Solver starting - good luck!

Initial state:
  Body  1
    density:          1.000000
    shape axes ratio: (1.000000, 1.000000, 0.999700)
    initial KE ratio: 0.500000
    position:         (-4.000000, 0.000000, 0.000000)
    velocity:         (-1.212551, 5.056851, 2.131164)
    angular velocity: (3.651128, 2.864867, -4.235590)
    orientation:      (w=-0.099554, i=-0.308550, j=0.319685, k=-0.890330)
  Body  2
    density:          1.000000
    shape axes ratio: (1.000000, 1.000000, 0.999700)
    initial KE ratio: 0.500000
    position:         (4.000000, 0.000000, 0.000000)
    velocity:         (-1.212546, 5.056831, 2.131156)
    angular velocity: (1.881365, -4.361662, 4.112759)
    orientation:      (w=-0.625895, i=-0.284328, j=0.665395, k=0.290968)

Preparing first step: implicit scheme, no bootstrap passes required.
First step may take longer than later steps.

First step completed in 3.658 s.

Step   100/2000    5.0% | t 5.000 | ETA 2m 39s | step 0.08s | KE 271.6309 | drift +0.23% | fluid 72.5765 | solid 199.0544
  Impulse FP iterations last/mean/max 6/6.27/7
Step   200/2000   10.0% | t 10.000 | ETA 2m 30s | step 0.08s | KE 272.8223 | drift +0.67% | fluid 72.5768 | solid 200.2455
  Impulse FP iterations last/mean/max 6/6.29/7
Step   300/2000   15.0% | t 15.000 | ETA 2m 22s | step 0.08s | KE 274.5912 | drift +1.32% | fluid 72.5782 | solid 202.0130
  Impulse FP iterations last/mean/max 6/6.28/7
Step   400/2000   20.0% | t 20.000 | ETA 2m 14s | step 0.08s | KE 276.9391 | drift +2.19% | fluid 72.5778 | solid 204.3613
  Impulse FP iterations last/mean/max 6/6.31/7
Step   500/2000   25.0% | t 25.000 | ETA 2m 6s | step 0.10s | KE 279.8660 | drift +3.27% | fluid 72.5796 | solid 207.2863
  Impulse FP iterations last/mean/max 7/6.35/7
Step   600/2000   30.0% | t 30.000 | ETA 1m 58s | step 0.09s | KE 283.3730 | drift +4.56% | fluid 72.5812 | solid 210.7918
  Impulse FP iterations last/mean/max 6/6.38/7
Step   700/2000   35.0% | t 35.000 | ETA 1m 50s | step 0.10s | KE 287.4605 | drift +6.07% | fluid 72.5827 | solid 214.8778
  Impulse FP iterations last/mean/max 7/6.41/7
Step   800/2000   40.0% | t 40.000 | ETA 1m 42s | step 0.09s | KE 292.1310 | drift +7.79% | fluid 72.5769 | solid 219.5541
  Impulse FP iterations last/mean/max 7/6.44/7
Step   900/2000   45.0% | t 45.000 | ETA 1m 34s | step 0.09s | KE 297.3821 | drift +9.73% | fluid 72.5806 | solid 224.8015
  Impulse FP iterations last/mean/max 7/6.47/7
Step  1000/2000   50.0% | t 50.000 | ETA 1m 26s | step 0.09s | KE 303.2178 | drift +11.88% | fluid 72.5757 | solid 230.6421
  Impulse FP iterations last/mean/max 7/6.49/7
Step  1100/2000   55.0% | t 55.000 | ETA 1m 18s | step 0.08s | KE 309.6353 | drift +14.25% | fluid 72.5786 | solid 237.0567
  Impulse FP iterations last/mean/max 7/6.52/7
Step  1200/2000   60.0% | t 60.000 | ETA 1m 9s | step 0.09s | KE 316.6389 | drift +16.83% | fluid 72.5802 | solid 244.0587
  Impulse FP iterations last/mean/max 7/6.55/7
Step  1300/2000   65.0% | t 65.000 | ETA 1m 1s | step 0.09s | KE 324.2290 | drift +19.63% | fluid 72.5784 | solid 251.6506
  Impulse FP iterations last/mean/max 7/6.57/7
Step  1400/2000   70.0% | t 70.000 | ETA 52s | step 0.09s | KE 332.4047 | drift +22.65% | fluid 72.5796 | solid 259.8251
  Impulse FP iterations last/mean/max 7/6.60/7
Step  1500/2000   75.0% | t 75.000 | ETA 43s | step 0.08s | KE 341.1687 | drift +25.88% | fluid 72.5794 | solid 268.5892
  Impulse FP iterations last/mean/max 7/6.62/7
Step  1600/2000   80.0% | t 80.000 | ETA 34s | step 0.09s | KE 350.5219 | drift +29.34% | fluid 72.5812 | solid 277.9407
  Impulse FP iterations last/mean/max 7/6.63/7
Step  1700/2000   85.0% | t 85.000 | ETA 26s | step 0.08s | KE 360.4635 | drift +33.00% | fluid 72.5800 | solid 287.8834
  Impulse FP iterations last/mean/max 7/6.65/7
Step  1800/2000   90.0% | t 90.000 | ETA 17s | step 0.08s | KE 370.9965 | drift +36.89% | fluid 72.5811 | solid 298.4153
  Impulse FP iterations last/mean/max 7/6.67/7
Step  1900/2000   95.0% | t 95.000 | ETA 8s | step 0.07s | KE 382.1239 | drift +41.00% | fluid 72.5793 | solid 309.5446
  Impulse FP iterations last/mean/max 7/6.69/7
Solver finished successfully - good job!
Results saved successfully.

================== Run summary ==================
  Bodies:            2
  Triangles / nodes: 256 / 516
  Timesteps:         2000  (dt = 0.05)
  Simulated time:    0 -> 100
  First-step setup:  3.658 s
  Mean time/step:    0.0846 s  (excl. first step)
  Total wall time:   2m 52s
  Impulse FP iters last/mean/max: 7 / 6.701 / 7
  Approx impulse solves/step:     6.701
  Impulse start cache hits/direct: 1999 / 1
  Impulse global drift P/H:       3.226531e-9 / 1.711398e-2
  Impulse per-body max drift P/H: 9.062411e-9 / 9.193106e-4
  CPU cores:         256 available, 8 Rayon worker thread(s)
  Started:           2026-06-24 02:23:12
  Finished:          2026-06-24 02:26:06
  Output file:       /work/e643/e643/shared/multi_ellip/studies/departing_sphericity_sweep/runs/spheroid_oblate/homogeneous/spheroid_oblate_homogeneous_eps0p0001_rho1_E0p5_sep8_run03_impulse_noproj/multiple_body_complete.dat
================================================
