
================ Simulation setup ================
  Run label:         /work/e643/e643/shared/multi_ellip/studies/two_body_paper_sweeps/runs/spheroid_1_0p7_0p7/spheroid_1_0p7_0p7_rho0p1_E30_sep11_run05_impulse_noproj/
  Started:           2026-06-24 02:15:03
  Input file:        /work/e643/e643/shared/multi_ellip/studies/two_body_paper_sweeps/runs/spheroid_1_0p7_0p7/spheroid_1_0p7_0p7_rho0p1_E30_sep11_run05_impulse_noproj/input.txt
  Output file:       /work/e643/e643/shared/multi_ellip/studies/two_body_paper_sweeps/runs/spheroid_1_0p7_0p7/spheroid_1_0p7_0p7_rho0p1_E30_sep11_run05_impulse_noproj/multiple_body_complete.dat
  Bodies:            2
  Fluid density:     1
  Mesh:              ndiv 2 -> 256 triangles / 516 nodes
  Simulated time:    0 -> 100  (dt = 0.05, ~2000 steps)
  Output cadence:    every 1 step(s)
  Output rows:       ~2001
  Progress cadence:  every 100 step(s)
  CPU cores:         256 available, 8 Rayon worker thread(s)
  Strong coupling:   disabled
  Impulse scheme:    enabled
  Hamiltonian step:  disabled
  Hamiltonian midpt: disabled
  Variational step:  disabled
  Energy projection: disabled
  Projection particular metric: Euclidean
  Fluid KE gradient: disabled  (eps = 0.001, scale = 1, linear = 1, angular = 1)
  Fluid KE discrete gradient: disabled
  Impulse pair metric correction: disabled  (mode = pair discrete-gradient, cutoff = all pairs, inner/outer = 0/0, eps = 0.001, linear scale = 1, angular scale = 0)
  Impulse metric correction: disabled  (internal load constraint = disabled)
  Impulse variational defect probe: disabled
  Impulse quadratic pressure: disabled  (scale = 1)
  Added-mass stab:   disabled
  Exact BEM geometry: disabled
  Exact singular BEM: disabled
  Legacy singular SLP diagnostic: disabled
  Phi-dot blend:     0 (off)

  Solver guidance:
    - Strong coupling: use for stiff close-coupled runs; slower but more implicit.
    - Impulse scheme: use when impulse/momentum conservation or KE drift is the focus. Recommended.
    - Added-mass stab: use for higher mesh counts (ndiv > 3) to preserve stability - deprecated.
================================================
Solver starting - good luck!

Initial state:
  Body  1
    density:          0.100000
    shape axes ratio: (1.000000, 0.700000, 0.700000)
    initial KE ratio: 30.000000
    position:         (-5.500000, 0.000000, 0.000000)
    velocity:         (0.469288, -0.603846, 0.114142)
    angular velocity: (-2.458125, 3.855318, 4.309589)
    orientation:      (w=-0.123339, i=0.329696, j=0.897160, k=0.266818)
  Body  2
    density:          0.100000
    shape axes ratio: (1.000000, 0.700000, 0.700000)
    initial KE ratio: 30.000000
    position:         (5.500000, 0.000000, 0.000000)
    velocity:         (0.478113, -0.615202, 0.116289)
    angular velocity: (-1.375892, -2.480221, -5.606589)
    orientation:      (w=-0.849245, i=0.519064, j=-0.035214, k=0.090087)

Preparing first step: implicit scheme, no bootstrap passes required.
First step may take longer than later steps.

First step completed in 0.292 s.

Step   100/2000    5.0% | t 5.000 | ETA 6m 27s | step 0.20s | KE 12.1188 | drift -0.12% | fluid 5.0447 | solid 7.0742
  Impulse FP iterations last/mean/max 16/15.67/17
Step   200/2000   10.0% | t 10.000 | ETA 6m 7s | step 0.18s | KE 12.1139 | drift -0.16% | fluid 5.0569 | solid 7.0570
  Impulse FP iterations last/mean/max 16/15.65/17
Step   300/2000   15.0% | t 15.000 | ETA 5m 46s | step 0.21s | KE 12.1133 | drift -0.17% | fluid 5.0682 | solid 7.0451
  Impulse FP iterations last/mean/max 16/15.68/17
Step   400/2000   20.0% | t 20.000 | ETA 5m 21s | step 0.17s | KE 12.1002 | drift -0.28% | fluid 4.9795 | solid 7.1207
  Impulse FP iterations last/mean/max 15/15.66/17
Step   500/2000   25.0% | t 25.000 | ETA 4m 59s | step 0.20s | KE 12.1013 | drift -0.27% | fluid 4.9559 | solid 7.1454
  Impulse FP iterations last/mean/max 16/15.65/17
Step   600/2000   30.0% | t 30.000 | ETA 4m 37s | step 0.19s | KE 12.1183 | drift -0.13% | fluid 5.0166 | solid 7.1018
  Impulse FP iterations last/mean/max 16/15.63/17
Step   700/2000   35.0% | t 35.000 | ETA 4m 16s | step 0.15s | KE 12.1136 | drift -0.17% | fluid 4.9305 | solid 7.1830
  Impulse FP iterations last/mean/max 13/15.61/17
Step   800/2000   40.0% | t 40.000 | ETA 3m 54s | step 0.18s | KE 12.1343 | drift +0.00% | fluid 4.9956 | solid 7.1387
  Impulse FP iterations last/mean/max 16/15.59/17
Step   900/2000   45.0% | t 45.000 | ETA 3m 33s | step 0.17s | KE 12.1410 | drift +0.06% | fluid 4.9605 | solid 7.1805
  Impulse FP iterations last/mean/max 15/15.57/17
Step  1000/2000   50.0% | t 50.000 | ETA 3m 13s | step 0.17s | KE 12.1543 | drift +0.17% | fluid 4.9566 | solid 7.1977
  Impulse FP iterations last/mean/max 15/15.55/17
Step  1100/2000   55.0% | t 55.000 | ETA 2m 53s | step 0.18s | KE 12.1731 | drift +0.32% | fluid 4.9943 | solid 7.1788
  Impulse FP iterations last/mean/max 15/15.52/17
Step  1200/2000   60.0% | t 60.000 | ETA 2m 33s | step 0.19s | KE 12.1790 | drift +0.37% | fluid 4.9546 | solid 7.2243
  Impulse FP iterations last/mean/max 16/15.49/17
Step  1300/2000   65.0% | t 65.000 | ETA 2m 13s | step 0.18s | KE 12.2053 | drift +0.59% | fluid 5.0480 | solid 7.1573
  Impulse FP iterations last/mean/max 15/15.45/17
Step  1400/2000   70.0% | t 70.000 | ETA 1m 53s | step 0.18s | KE 12.2077 | drift +0.61% | fluid 4.9796 | solid 7.2280
  Impulse FP iterations last/mean/max 15/15.42/17
Step  1500/2000   75.0% | t 75.000 | ETA 1m 34s | step 0.17s | KE 12.2352 | drift +0.84% | fluid 5.0760 | solid 7.1592
  Impulse FP iterations last/mean/max 14/15.40/17
Step  1600/2000   80.0% | t 80.000 | ETA 1m 15s | step 0.19s | KE 12.2336 | drift +0.82% | fluid 4.9923 | solid 7.2413
  Impulse FP iterations last/mean/max 15/15.37/17
Step  1700/2000   85.0% | t 85.000 | ETA 56s | step 0.18s | KE 12.2536 | drift +0.99% | fluid 5.0507 | solid 7.2029
  Impulse FP iterations last/mean/max 15/15.35/17
Step  1800/2000   90.0% | t 90.000 | ETA 37s | step 0.19s | KE 12.2545 | drift +1.00% | fluid 4.9831 | solid 7.2715
  Impulse FP iterations last/mean/max 14/15.33/17
Step  1900/2000   95.0% | t 95.000 | ETA 18s | step 0.16s | KE 12.2670 | drift +1.10% | fluid 4.9916 | solid 7.2754
  Impulse FP iterations last/mean/max 15/15.30/17
Solver finished successfully - good job!
Results saved successfully.

================== Run summary ==================
  Bodies:            2
  Triangles / nodes: 256 / 516
  Timesteps:         2000  (dt = 0.05)
  Simulated time:    0 -> 100
  First-step setup:  0.292 s
  Mean time/step:    0.1864 s  (excl. first step)
  Total wall time:   6m 12s
  Impulse FP iters last/mean/max: 14 / 15.291 / 17
  Approx impulse solves/step:     15.292
  Impulse start cache hits/direct: 1999 / 1
  Impulse global drift P/H:       1.948159e-7 / 1.244119e-2
  Impulse per-body max drift P/H: 3.624563e-7 / 2.339401e-3
  CPU cores:         256 available, 8 Rayon worker thread(s)
  Started:           2026-06-24 02:15:03
  Finished:          2026-06-24 02:21:16
  Output file:       /work/e643/e643/shared/multi_ellip/studies/two_body_paper_sweeps/runs/spheroid_1_0p7_0p7/spheroid_1_0p7_0p7_rho0p1_E30_sep11_run05_impulse_noproj/multiple_body_complete.dat
================================================
