
================ Simulation setup ================
  Run label:         /work/e643/e643/shared/multi_ellip/studies/departing_sphericity_sweep/runs/spheroid_oblate/homogeneous/spheroid_oblate_homogeneous_eps0_rho1_E0p5_sep8_run01_impulse_noproj/
  Started:           2026-06-24 02:23:13
  Input file:        /work/e643/e643/shared/multi_ellip/studies/departing_sphericity_sweep/runs/spheroid_oblate/homogeneous/spheroid_oblate_homogeneous_eps0_rho1_E0p5_sep8_run01_impulse_noproj/input.txt
  Output file:       /work/e643/e643/shared/multi_ellip/studies/departing_sphericity_sweep/runs/spheroid_oblate/homogeneous/spheroid_oblate_homogeneous_eps0_rho1_E0p5_sep8_run01_impulse_noproj/multiple_body_complete.dat
  Bodies:            2
  Fluid density:     1
  Mesh:              ndiv 2 -> 256 triangles / 516 nodes
  Simulated time:    0 -> 100  (dt = 0.05, ~2000 steps)
  Output cadence:    every 1 step(s)
  Output rows:       ~2001
  Progress cadence:  every 100 step(s)
  CPU cores:         256 available, 8 Rayon worker thread(s)
  Strong coupling:   disabled
  Impulse scheme:    enabled
  Hamiltonian step:  disabled
  Hamiltonian midpt: disabled
  Variational step:  disabled
  Energy projection: disabled
  Projection particular metric: Euclidean
  Fluid KE gradient: disabled  (eps = 0.001, scale = 1, linear = 1, angular = 1)
  Fluid KE discrete gradient: disabled
  Impulse pair metric correction: disabled  (mode = pair discrete-gradient, cutoff = all pairs, inner/outer = 0/0, eps = 0.001, linear scale = 1, angular scale = 0)
  Impulse metric correction: disabled  (internal load constraint = disabled)
  Impulse variational defect probe: disabled
  Impulse quadratic pressure: disabled  (scale = 1)
  Added-mass stab:   disabled
  Exact BEM geometry: disabled
  Exact singular BEM: disabled
  Legacy singular SLP diagnostic: disabled
  Phi-dot blend:     0 (off)

  Solver guidance:
    - Strong coupling: use for stiff close-coupled runs; slower but more implicit.
    - Impulse scheme: use when impulse/momentum conservation or KE drift is the focus. Recommended.
    - Added-mass stab: use for higher mesh counts (ndiv > 3) to preserve stability - deprecated.
================================================
Solver starting - good luck!

Initial state:
  Body  1
    density:          1.000000
    shape axes ratio: (1.000000, 1.000000, 1.000000)
    initial KE ratio: 0.500000
    position:         (-4.000000, 0.000000, 0.000000)
    velocity:         (-5.038545, 0.343409, 2.465333)
    angular velocity: (-3.825160, 4.570105, 1.990154)
    orientation:      (w=0.743037, i=-0.097265, j=-0.463729, k=0.472642)
  Body  2
    density:          1.000000
    shape axes ratio: (1.000000, 1.000000, 1.000000)
    initial KE ratio: 0.500000
    position:         (4.000000, 0.000000, 0.000000)
    velocity:         (-5.038545, 0.343409, 2.465333)
    angular velocity: (0.489500, -6.146073, -1.210205)
    orientation:      (w=0.675686, i=-0.418962, j=0.202529, k=0.571754)

Preparing first step: implicit scheme, no bootstrap passes required.
First step may take longer than later steps.

First step completed in 3.578 s.

Step   100/2000    5.0% | t 5.000 | ETA 2m 20s | step 0.09s | KE 273.7301 | drift +1.19% | fluid 72.0823 | solid 201.6478
  Impulse FP iterations last/mean/max 6/5.63/6
Step   200/2000   10.0% | t 10.000 | ETA 2m 13s | step 0.08s | KE 278.9799 | drift +3.13% | fluid 72.0823 | solid 206.8976
  Impulse FP iterations last/mean/max 6/5.66/6
Step   300/2000   15.0% | t 15.000 | ETA 2m 7s | step 0.08s | KE 286.2722 | drift +5.82% | fluid 72.0823 | solid 214.1898
  Impulse FP iterations last/mean/max 6/5.68/6
Step   400/2000   20.0% | t 20.000 | ETA 1m 59s | step 0.07s | KE 295.6069 | drift +9.27% | fluid 72.0823 | solid 223.5246
  Impulse FP iterations last/mean/max 5/5.66/6
Step   500/2000   25.0% | t 25.000 | ETA 1m 51s | step 0.06s | KE 306.9841 | drift +13.48% | fluid 72.0823 | solid 234.9018
  Impulse FP iterations last/mean/max 5/5.64/6
Step   600/2000   30.0% | t 30.000 | ETA 1m 43s | step 0.07s | KE 320.4038 | drift +18.44% | fluid 72.0823 | solid 248.3215
  Impulse FP iterations last/mean/max 6/5.62/6
Step   700/2000   35.0% | t 35.000 | ETA 1m 35s | step 0.07s | KE 335.8654 | drift +24.15% | fluid 72.0824 | solid 263.7831
  Impulse FP iterations last/mean/max 5/5.60/6
Step   800/2000   40.0% | t 40.000 | ETA 1m 28s | step 0.07s | KE 353.3689 | drift +30.62% | fluid 72.0823 | solid 281.2866
  Impulse FP iterations last/mean/max 5/5.58/6
Step   900/2000   45.0% | t 45.000 | ETA 1m 20s | step 0.06s | KE 372.9137 | drift +37.85% | fluid 72.0824 | solid 300.8314
  Impulse FP iterations last/mean/max 5/5.55/6
Step  1000/2000   50.0% | t 50.000 | ETA 1m 12s | step 0.06s | KE 394.5003 | drift +45.83% | fluid 72.0823 | solid 322.4179
  Impulse FP iterations last/mean/max 5/5.53/6
Step  1100/2000   55.0% | t 55.000 | ETA 1m 5s | step 0.07s | KE 418.1281 | drift +54.56% | fluid 72.0824 | solid 346.0457
  Impulse FP iterations last/mean/max 5/5.51/6
Step  1200/2000   60.0% | t 60.000 | ETA 57s | step 0.07s | KE 443.7980 | drift +64.05% | fluid 72.0824 | solid 371.7156
  Impulse FP iterations last/mean/max 5/5.49/6
Step  1300/2000   65.0% | t 65.000 | ETA 50s | step 0.07s | KE 471.5099 | drift +74.30% | fluid 72.0824 | solid 399.4275
  Impulse FP iterations last/mean/max 5/5.48/6
Step  1400/2000   70.0% | t 70.000 | ETA 43s | step 0.07s | KE 501.2637 | drift +85.29% | fluid 72.0824 | solid 429.1813
  Impulse FP iterations last/mean/max 5/5.46/6
Step  1500/2000   75.0% | t 75.000 | ETA 35s | step 0.07s | KE 533.0596 | drift +97.05% | fluid 72.0824 | solid 460.9772
  Impulse FP iterations last/mean/max 5/5.45/6
Step  1600/2000   80.0% | t 80.000 | ETA 28s | step 0.07s | KE 566.8974 | drift +109.56% | fluid 72.0825 | solid 494.8149
  Impulse FP iterations last/mean/max 5/5.44/6
Step  1700/2000   85.0% | t 85.000 | ETA 21s | step 0.07s | KE 602.7774 | drift +122.82% | fluid 72.0825 | solid 530.6949
  Impulse FP iterations last/mean/max 5/5.43/6
Step  1800/2000   90.0% | t 90.000 | ETA 14s | step 0.07s | KE 640.6995 | drift +136.84% | fluid 72.0825 | solid 568.6170
  Impulse FP iterations last/mean/max 5/5.42/6
Step  1900/2000   95.0% | t 95.000 | ETA 7s | step 0.06s | KE 680.6633 | drift +151.61% | fluid 72.0826 | solid 608.5808
  Impulse FP iterations last/mean/max 5/5.41/6
Solver finished successfully - good job!
Results saved successfully.

================== Run summary ==================
  Bodies:            2
  Triangles / nodes: 256 / 516
  Timesteps:         2000  (dt = 0.05)
  Simulated time:    0 -> 100
  First-step setup:  3.578 s
  Mean time/step:    0.0706 s  (excl. first step)
  Total wall time:   2m 24s
  Impulse FP iters last/mean/max: 5 / 5.407 / 6
  Approx impulse solves/step:     5.407
  Impulse start cache hits/direct: 1999 / 1
  Impulse global drift P/H:       2.465034e-9 / 4.306371e-2
  Impulse per-body max drift P/H: 3.330669e-9 / 3.276729e-3
  CPU cores:         256 available, 8 Rayon worker thread(s)
  Started:           2026-06-24 02:23:13
  Finished:          2026-06-24 02:25:38
  Output file:       /work/e643/e643/shared/multi_ellip/studies/departing_sphericity_sweep/runs/spheroid_oblate/homogeneous/spheroid_oblate_homogeneous_eps0_rho1_E0p5_sep8_run01_impulse_noproj/multiple_body_complete.dat
================================================
