
================ Simulation setup ================
  Run label:         /work/e643/e643/shared/multi_ellip/studies/two_body_paper_sweeps/runs/spheroid_1_0p7_0p7/spheroid_1_0p7_0p7_rho0p3_E4_sep8_run02_impulse_noproj/
  Started:           2026-06-22 19:45:57
  Input file:        /work/e643/e643/shared/multi_ellip/studies/two_body_paper_sweeps/runs/spheroid_1_0p7_0p7/spheroid_1_0p7_0p7_rho0p3_E4_sep8_run02_impulse_noproj/input.txt
  Output file:       /work/e643/e643/shared/multi_ellip/studies/two_body_paper_sweeps/runs/spheroid_1_0p7_0p7/spheroid_1_0p7_0p7_rho0p3_E4_sep8_run02_impulse_noproj/multiple_body_complete.dat
  Bodies:            2
  Fluid density:     1
  Mesh:              ndiv 2 -> 256 triangles / 516 nodes
  Simulated time:    0 -> 100  (dt = 0.05, ~2000 steps)
  Output cadence:    every 1 step(s)
  Output rows:       ~2001
  Progress cadence:  every 100 step(s)
  CPU cores:         256 available, 8 Rayon worker thread(s)
  Strong coupling:   disabled
  Impulse scheme:    enabled
  Hamiltonian step:  disabled
  Hamiltonian midpt: disabled
  Variational step:  disabled
  Energy projection: disabled
  Projection particular metric: Euclidean
  Fluid KE gradient: disabled  (eps = 0.001, scale = 1, linear = 1, angular = 1)
  Fluid KE discrete gradient: disabled
  Impulse pair metric correction: disabled  (mode = pair discrete-gradient, cutoff = all pairs, inner/outer = 0/0, eps = 0.001, linear scale = 1, angular scale = 0)
  Impulse metric correction: disabled  (internal load constraint = disabled)
  Impulse variational defect probe: disabled
  Impulse quadratic pressure: disabled  (scale = 1)
  Added-mass stab:   disabled
  Exact BEM geometry: disabled
  Exact singular BEM: disabled
  Legacy singular SLP diagnostic: disabled
  Phi-dot blend:     0 (off)

  Solver guidance:
    - Strong coupling: use for stiff close-coupled runs; slower but more implicit.
    - Impulse scheme: use when impulse/momentum conservation or KE drift is the focus. Recommended.
    - Added-mass stab: use for higher mesh counts (ndiv > 3) to preserve stability - deprecated.
================================================
Solver starting - good luck!

Initial state:
  Body  1
    density:          0.300000
    shape axes ratio: (1.000000, 0.700000, 0.700000)
    initial KE ratio: 4.000000
    position:         (-4.000000, 0.000000, 0.000000)
    velocity:         (-1.622502, 0.858532, -0.456212)
    angular velocity: (5.304354, -3.294233, -0.700198)
    orientation:      (w=0.577350, i=0.577350, j=0.577350, k=0.000000)
  Body  2
    density:          0.300000
    shape axes ratio: (1.000000, 0.700000, 0.700000)
    initial KE ratio: 4.000000
    position:         (4.000000, 0.000000, 0.000000)
    velocity:         (-1.558563, 0.824699, -0.438233)
    angular velocity: (-5.905394, -0.415344, 2.105285)
    orientation:      (w=0.577350, i=-0.577350, j=0.000000, k=0.577350)

Preparing first step: implicit scheme, no bootstrap passes required.
First step may take longer than later steps.

First step completed in 0.326 s.

Step   100/2000    5.0% | t 5.000 | ETA 4m 11s | step 0.14s | KE 41.3420 | drift -0.52% | fluid 14.7982 | solid 26.5437
  Impulse FP iterations last/mean/max 11/11.15/12
Step   200/2000   10.0% | t 10.000 | ETA 4m 3s | step 0.15s | KE 41.4253 | drift -0.32% | fluid 14.7900 | solid 26.6353
  Impulse FP iterations last/mean/max 11/11.12/12
Step   300/2000   15.0% | t 15.000 | ETA 4m 1s | step 0.16s | KE 41.5702 | drift +0.03% | fluid 14.8338 | solid 26.7364
  Impulse FP iterations last/mean/max 11/11.13/12
Step   400/2000   20.0% | t 20.000 | ETA 3m 54s | step 0.15s | KE 41.2980 | drift -0.63% | fluid 14.7510 | solid 26.5469
  Impulse FP iterations last/mean/max 11/11.15/12
Step   500/2000   25.0% | t 25.000 | ETA 3m 44s | step 0.17s | KE 41.6641 | drift +0.26% | fluid 14.8487 | solid 26.8155
  Impulse FP iterations last/mean/max 11/11.14/12
Step   600/2000   30.0% | t 30.000 | ETA 3m 32s | step 0.17s | KE 41.3660 | drift -0.46% | fluid 14.7559 | solid 26.6101
  Impulse FP iterations last/mean/max 11/11.16/12
Step   700/2000   35.0% | t 35.000 | ETA 3m 19s | step 0.16s | KE 41.4968 | drift -0.15% | fluid 14.8133 | solid 26.6835
  Impulse FP iterations last/mean/max 11/11.15/12
Step   800/2000   40.0% | t 40.000 | ETA 3m 4s | step 0.15s | KE 41.5919 | drift +0.08% | fluid 14.7945 | solid 26.7974
  Impulse FP iterations last/mean/max 11/11.16/12
Step   900/2000   45.0% | t 45.000 | ETA 2m 50s | step 0.16s | KE 41.2840 | drift -0.66% | fluid 14.7621 | solid 26.5219
  Impulse FP iterations last/mean/max 11/11.17/12
Step  1000/2000   50.0% | t 50.000 | ETA 2m 35s | step 0.16s | KE 41.7088 | drift +0.36% | fluid 14.8186 | solid 26.8902
  Impulse FP iterations last/mean/max 11/11.18/12
Step  1100/2000   55.0% | t 55.000 | ETA 2m 20s | step 0.16s | KE 41.3269 | drift -0.56% | fluid 14.7572 | solid 26.5697
  Impulse FP iterations last/mean/max 11/11.18/12
Step  1200/2000   60.0% | t 60.000 | ETA 2m 5s | step 0.16s | KE 41.5419 | drift -0.04% | fluid 14.7901 | solid 26.7518
  Impulse FP iterations last/mean/max 11/11.18/12
Step  1300/2000   65.0% | t 65.000 | ETA 1m 50s | step 0.16s | KE 41.6085 | drift +0.12% | fluid 14.7957 | solid 26.8128
  Impulse FP iterations last/mean/max 11/11.18/12
Step  1400/2000   70.0% | t 70.000 | ETA 1m 34s | step 0.15s | KE 41.2890 | drift -0.65% | fluid 14.7346 | solid 26.5545
  Impulse FP iterations last/mean/max 11/11.19/12
Step  1500/2000   75.0% | t 75.000 | ETA 1m 18s | step 0.16s | KE 41.8132 | drift +0.61% | fluid 14.8240 | solid 26.9892
  Impulse FP iterations last/mean/max 11/11.19/12
Step  1600/2000   80.0% | t 80.000 | ETA 1m 3s | step 0.17s | KE 41.3591 | drift -0.48% | fluid 14.7326 | solid 26.6265
  Impulse FP iterations last/mean/max 11/11.19/12
Step  1700/2000   85.0% | t 85.000 | ETA 47s | step 0.17s | KE 41.6458 | drift +0.21% | fluid 14.7884 | solid 26.8574
  Impulse FP iterations last/mean/max 11/11.20/12
Step  1800/2000   90.0% | t 90.000 | ETA 31s | step 0.16s | KE 41.7047 | drift +0.35% | fluid 14.7961 | solid 26.9086
  Impulse FP iterations last/mean/max 11/11.20/12
Step  1900/2000   95.0% | t 95.000 | ETA 15s | step 0.14s | KE 41.3203 | drift -0.57% | fluid 14.7198 | solid 26.6005
  Impulse FP iterations last/mean/max 11/11.21/12
Solver finished successfully - good job!
Results saved successfully.

================== Run summary ==================
  Bodies:            2
  Triangles / nodes: 256 / 516
  Timesteps:         2000  (dt = 0.05)
  Simulated time:    0 -> 100
  First-step setup:  0.326 s
  Mean time/step:    0.1583 s  (excl. first step)
  Total wall time:   5m 16s
  Impulse FP iters last/mean/max: 11 / 11.216 / 13
  Approx impulse solves/step:     11.216
  Impulse start cache hits/direct: 1999 / 1
  Impulse global drift P/H:       9.867990e-9 / 2.924865e-2
  Impulse per-body max drift P/H: 2.797320e-8 / 3.622967e-3
  CPU cores:         256 available, 8 Rayon worker thread(s)
  Started:           2026-06-22 19:45:57
  Finished:          2026-06-22 19:51:17
  Output file:       /work/e643/e643/shared/multi_ellip/studies/two_body_paper_sweeps/runs/spheroid_1_0p7_0p7/spheroid_1_0p7_0p7_rho0p3_E4_sep8_run02_impulse_noproj/multiple_body_complete.dat
================================================
