
================ Simulation setup ================
  Run label:         /work/e643/e643/shared/multi_ellip/studies/two_body_paper_sweeps/runs/spheroid_1_0p7_0p7/spheroid_1_0p7_0p7_rho0p03_E1p5_sep3_run01_impulse_noproj/
  Started:           2026-06-22 20:09:21
  Input file:        /work/e643/e643/shared/multi_ellip/studies/two_body_paper_sweeps/runs/spheroid_1_0p7_0p7/spheroid_1_0p7_0p7_rho0p03_E1p5_sep3_run01_impulse_noproj/input.txt
  Output file:       /work/e643/e643/shared/multi_ellip/studies/two_body_paper_sweeps/runs/spheroid_1_0p7_0p7/spheroid_1_0p7_0p7_rho0p03_E1p5_sep3_run01_impulse_noproj/multiple_body_complete.dat
  Bodies:            2
  Fluid density:     1
  Mesh:              ndiv 2 -> 256 triangles / 516 nodes
  Simulated time:    0 -> 100  (dt = 0.05, ~2000 steps)
  Output cadence:    every 1 step(s)
  Output rows:       ~2001
  Progress cadence:  every 100 step(s)
  CPU cores:         256 available, 8 Rayon worker thread(s)
  Strong coupling:   disabled
  Impulse scheme:    enabled
  Hamiltonian step:  disabled
  Hamiltonian midpt: disabled
  Variational step:  disabled
  Energy projection: disabled
  Projection particular metric: Euclidean
  Fluid KE gradient: disabled  (eps = 0.001, scale = 1, linear = 1, angular = 1)
  Fluid KE discrete gradient: disabled
  Impulse pair metric correction: disabled  (mode = pair discrete-gradient, cutoff = all pairs, inner/outer = 0/0, eps = 0.001, linear scale = 1, angular scale = 0)
  Impulse metric correction: disabled  (internal load constraint = disabled)
  Impulse variational defect probe: disabled
  Impulse quadratic pressure: disabled  (scale = 1)
  Added-mass stab:   disabled
  Exact BEM geometry: disabled
  Exact singular BEM: disabled
  Legacy singular SLP diagnostic: disabled
  Phi-dot blend:     0 (off)

  Solver guidance:
    - Strong coupling: use for stiff close-coupled runs; slower but more implicit.
    - Impulse scheme: use when impulse/momentum conservation or KE drift is the focus. Recommended.
    - Added-mass stab: use for higher mesh counts (ndiv > 3) to preserve stability - deprecated.
================================================
Solver starting - good luck!

Initial state:
  Body  1
    density:          0.030000
    shape axes ratio: (1.000000, 0.700000, 0.700000)
    initial KE ratio: 1.500000
    position:         (-1.500000, 0.000000, 0.000000)
    velocity:         (-2.847904, 1.644898, -1.334385)
    angular velocity: (-0.448867, -0.522675, 6.245298)
    orientation:      (w=0.447214, i=0.894427, j=0.000000, k=0.000000)
  Body  2
    density:          0.030000
    shape axes ratio: (1.000000, 0.700000, 0.700000)
    initial KE ratio: 1.500000
    position:         (1.500000, 0.000000, 0.000000)
    velocity:         (-2.527391, 1.459776, -1.184209)
    angular velocity: (4.965791, -0.662338, 3.792182)
    orientation:      (w=0.707107, i=0.000000, j=0.707107, k=0.000000)

Preparing first step: implicit scheme, no bootstrap passes required.
First step may take longer than later steps.

First step completed in 0.350 s.

Step   100/2000    5.0% | t 5.000 | ETA 10m 31s | step 0.32s | KE 66.8000 | drift +101.23% | fluid 46.6433 | solid 20.1567
  Impulse FP iterations last/mean/max 21/22.93/27
Step   200/2000   10.0% | t 10.000 | ETA 9m 35s | step 0.31s | KE 62.1087 | drift +87.10% | fluid 43.2311 | solid 18.8776
  Impulse FP iterations last/mean/max 22/22.04/27
Step   300/2000   15.0% | t 15.000 | ETA 8m 55s | step 0.29s | KE 61.1862 | drift +84.32% | fluid 43.1731 | solid 18.0131
  Impulse FP iterations last/mean/max 20/21.69/27
Step   400/2000   20.0% | t 20.000 | ETA 8m 18s | step 0.30s | KE 60.0927 | drift +81.02% | fluid 42.5024 | solid 17.5903
  Impulse FP iterations last/mean/max 21/21.48/27
Step   500/2000   25.0% | t 25.000 | ETA 7m 44s | step 0.28s | KE 60.6086 | drift +82.58% | fluid 42.7937 | solid 17.8148
  Impulse FP iterations last/mean/max 19/21.35/27
Step   600/2000   30.0% | t 30.000 | ETA 7m 11s | step 0.28s | KE 61.6282 | drift +85.65% | fluid 43.5597 | solid 18.0685
  Impulse FP iterations last/mean/max 20/21.25/27
Step   700/2000   35.0% | t 35.000 | ETA 6m 39s | step 0.30s | KE 62.1680 | drift +87.27% | fluid 43.5336 | solid 18.6344
  Impulse FP iterations last/mean/max 21/21.19/27
Step   800/2000   40.0% | t 40.000 | ETA 6m 8s | step 0.30s | KE 60.9872 | drift +83.72% | fluid 43.2873 | solid 17.6999
  Impulse FP iterations last/mean/max 21/21.16/27
Step   900/2000   45.0% | t 45.000 | ETA 5m 37s | step 0.29s | KE 60.0717 | drift +80.96% | fluid 42.6659 | solid 17.4058
  Impulse FP iterations last/mean/max 20/21.14/27
Step  1000/2000   50.0% | t 50.000 | ETA 5m 6s | step 0.28s | KE 60.7559 | drift +83.02% | fluid 42.9338 | solid 17.8220
  Impulse FP iterations last/mean/max 19/21.11/27
Step  1100/2000   55.0% | t 55.000 | ETA 4m 34s | step 0.29s | KE 61.7228 | drift +85.93% | fluid 43.5829 | solid 18.1399
  Impulse FP iterations last/mean/max 20/21.07/27
Step  1200/2000   60.0% | t 60.000 | ETA 4m 4s | step 0.28s | KE 62.0337 | drift +86.87% | fluid 43.3783 | solid 18.6554
  Impulse FP iterations last/mean/max 20/21.06/27
Step  1300/2000   65.0% | t 65.000 | ETA 3m 33s | step 0.30s | KE 60.7596 | drift +83.03% | fluid 42.9808 | solid 17.7788
  Impulse FP iterations last/mean/max 22/21.04/27
Step  1400/2000   70.0% | t 70.000 | ETA 3m 2s | step 0.33s | KE 60.1293 | drift +81.13% | fluid 42.5052 | solid 17.6241
  Impulse FP iterations last/mean/max 22/21.03/27
Step  1500/2000   75.0% | t 75.000 | ETA 2m 32s | step 0.28s | KE 61.1158 | drift +84.11% | fluid 42.8815 | solid 18.2343
  Impulse FP iterations last/mean/max 20/21.02/27
Step  1600/2000   80.0% | t 80.000 | ETA 2m 1s | step 0.33s | KE 61.9218 | drift +86.53% | fluid 43.4894 | solid 18.4324
  Impulse FP iterations last/mean/max 21/21.01/27
Step  1700/2000   85.0% | t 85.000 | ETA 1m 31s | step 0.29s | KE 61.9747 | drift +86.69% | fluid 43.2400 | solid 18.7347
  Impulse FP iterations last/mean/max 20/21.00/27
Step  1800/2000   90.0% | t 90.000 | ETA 1m 0s | step 0.24s | KE 60.6731 | drift +82.77% | fluid 42.8479 | solid 17.8251
  Impulse FP iterations last/mean/max 21/21.00/27
Step  1900/2000   95.0% | t 95.000 | ETA 29s | step 0.20s | KE 60.3613 | drift +81.83% | fluid 42.6459 | solid 17.7154
  Impulse FP iterations last/mean/max 22/21.00/27
Solver finished successfully - good job!
Results saved successfully.

================== Run summary ==================
  Bodies:            2
  Triangles / nodes: 256 / 516
  Timesteps:         2000  (dt = 0.05)
  Simulated time:    0 -> 100
  First-step setup:  0.350 s
  Mean time/step:    0.2909 s  (excl. first step)
  Total wall time:   9m 41s
  Impulse FP iters last/mean/max: 22 / 20.988 / 27
  Approx impulse solves/step:     20.989
  Impulse start cache hits/direct: 1999 / 1
  Impulse global drift P/H:       2.729150e-8 / 2.656915e-1
  Impulse per-body max drift P/H: 3.582336e-8 / 9.696867e-2
  CPU cores:         256 available, 8 Rayon worker thread(s)
  Started:           2026-06-22 20:09:21
  Finished:          2026-06-22 20:19:03
  Output file:       /work/e643/e643/shared/multi_ellip/studies/two_body_paper_sweeps/runs/spheroid_1_0p7_0p7/spheroid_1_0p7_0p7_rho0p03_E1p5_sep3_run01_impulse_noproj/multiple_body_complete.dat
================================================
