
================ Simulation setup ================
  Run label:         /work/e643/e643/shared/multi_ellip/studies/two_body_paper_sweeps/runs/ellipsoid_1_0p8_0p6/ellipsoid_1_0p8_0p6_rho0p03_E11_sep8_run02_impulse_noproj/
  Started:           2026-06-22 20:15:25
  Input file:        /work/e643/e643/shared/multi_ellip/studies/two_body_paper_sweeps/runs/ellipsoid_1_0p8_0p6/ellipsoid_1_0p8_0p6_rho0p03_E11_sep8_run02_impulse_noproj/input.txt
  Output file:       /work/e643/e643/shared/multi_ellip/studies/two_body_paper_sweeps/runs/ellipsoid_1_0p8_0p6/ellipsoid_1_0p8_0p6_rho0p03_E11_sep8_run02_impulse_noproj/multiple_body_complete.dat
  Bodies:            2
  Fluid density:     1
  Mesh:              ndiv 2 -> 256 triangles / 516 nodes
  Simulated time:    0 -> 100  (dt = 0.05, ~2000 steps)
  Output cadence:    every 1 step(s)
  Output rows:       ~2001
  Progress cadence:  every 100 step(s)
  CPU cores:         256 available, 8 Rayon worker thread(s)
  Strong coupling:   disabled
  Impulse scheme:    enabled
  Hamiltonian step:  disabled
  Hamiltonian midpt: disabled
  Variational step:  disabled
  Energy projection: disabled
  Projection particular metric: Euclidean
  Fluid KE gradient: disabled  (eps = 0.001, scale = 1, linear = 1, angular = 1)
  Fluid KE discrete gradient: disabled
  Impulse pair metric correction: disabled  (mode = pair discrete-gradient, cutoff = all pairs, inner/outer = 0/0, eps = 0.001, linear scale = 1, angular scale = 0)
  Impulse metric correction: disabled  (internal load constraint = disabled)
  Impulse variational defect probe: disabled
  Impulse quadratic pressure: disabled  (scale = 1)
  Added-mass stab:   disabled
  Exact BEM geometry: disabled
  Exact singular BEM: disabled
  Legacy singular SLP diagnostic: disabled
  Phi-dot blend:     0 (off)

  Solver guidance:
    - Strong coupling: use for stiff close-coupled runs; slower but more implicit.
    - Impulse scheme: use when impulse/momentum conservation or KE drift is the focus. Recommended.
    - Added-mass stab: use for higher mesh counts (ndiv > 3) to preserve stability - deprecated.
================================================
Solver starting - good luck!

Initial state:
  Body  1
    density:          0.030000
    shape axes ratio: (1.000000, 0.800000, 0.600000)
    initial KE ratio: 11.000000
    position:         (-4.000000, 0.000000, 0.000000)
    velocity:         (-0.335618, 1.183100, 0.182606)
    angular velocity: (2.563250, 5.484391, 1.682147)
    orientation:      (w=0.577350, i=0.577350, j=0.577350, k=0.000000)
  Body  2
    density:          0.030000
    shape axes ratio: (1.000000, 0.800000, 0.600000)
    initial KE ratio: 11.000000
    position:         (4.000000, 0.000000, 0.000000)
    velocity:         (-0.341924, 1.205330, 0.186037)
    angular velocity: (3.004639, -4.171406, -3.612469)
    orientation:      (w=0.577350, i=-0.577350, j=0.000000, k=0.577350)

Preparing first step: implicit scheme, no bootstrap passes required.
First step may take longer than later steps.

First step completed in 0.511 s.

Step   100/2000    5.0% | t 5.000 | ETA 11m 43s | step 0.41s | KE 13.2260 | drift -2.73% | fluid 10.9155 | solid 2.3105
  Impulse FP iterations last/mean/max 30/29.45/30
Step   200/2000   10.0% | t 10.000 | ETA 11m 28s | step 0.40s | KE 13.7774 | drift +1.33% | fluid 12.0106 | solid 1.7668
  Impulse FP iterations last/mean/max 29/29.49/30
Step   300/2000   15.0% | t 15.000 | ETA 10m 55s | step 0.40s | KE 14.0087 | drift +3.03% | fluid 10.9664 | solid 3.0423
  Impulse FP iterations last/mean/max 30/29.50/30
Step   400/2000   20.0% | t 20.000 | ETA 10m 18s | step 0.40s | KE 14.3552 | drift +5.58% | fluid 10.8609 | solid 3.4942
  Impulse FP iterations last/mean/max 30/29.44/30
Step   500/2000   25.0% | t 25.000 | ETA 9m 39s | step 0.39s | KE 14.5291 | drift +6.85% | fluid 11.7100 | solid 2.8191
  Impulse FP iterations last/mean/max 29/29.38/30
Step   600/2000   30.0% | t 30.000 | ETA 9m 2s | step 0.39s | KE 14.4227 | drift +6.07% | fluid 12.1012 | solid 2.3215
  Impulse FP iterations last/mean/max 30/29.38/30
Step   700/2000   35.0% | t 35.000 | ETA 8m 23s | step 0.42s | KE 14.3521 | drift +5.55% | fluid 11.5490 | solid 2.8031
  Impulse FP iterations last/mean/max 30/29.36/30
Step   800/2000   40.0% | t 40.000 | ETA 7m 42s | step 0.32s | KE 14.2319 | drift +4.67% | fluid 10.8330 | solid 3.3990
  Impulse FP iterations last/mean/max 27/29.28/30
Step   900/2000   45.0% | t 45.000 | ETA 7m 2s | step 0.37s | KE 14.3801 | drift +5.76% | fluid 12.6814 | solid 1.6987
  Impulse FP iterations last/mean/max 30/29.27/30
Step  1000/2000   50.0% | t 50.000 | ETA 6m 24s | step 0.36s | KE 14.1639 | drift +4.17% | fluid 10.2207 | solid 3.9432
  Impulse FP iterations last/mean/max 29/29.30/30
Step  1100/2000   55.0% | t 55.000 | ETA 5m 45s | step 0.39s | KE 14.2256 | drift +4.62% | fluid 12.1106 | solid 2.1150
  Impulse FP iterations last/mean/max 30/29.30/30
Step  1200/2000   60.0% | t 60.000 | ETA 5m 6s | step 0.39s | KE 14.2011 | drift +4.44% | fluid 10.8166 | solid 3.3846
  Impulse FP iterations last/mean/max 30/29.32/30
Step  1300/2000   65.0% | t 65.000 | ETA 4m 28s | step 0.39s | KE 14.2133 | drift +4.53% | fluid 11.5413 | solid 2.6720
  Impulse FP iterations last/mean/max 30/29.34/30
Step  1400/2000   70.0% | t 70.000 | ETA 3m 50s | step 0.38s | KE 14.1937 | drift +4.39% | fluid 11.5698 | solid 2.6239
  Impulse FP iterations last/mean/max 30/29.36/30
Step  1500/2000   75.0% | t 75.000 | ETA 3m 11s | step 0.38s | KE 14.1749 | drift +4.25% | fluid 11.3380 | solid 2.8369
  Impulse FP iterations last/mean/max 30/29.35/30
Step  1600/2000   80.0% | t 80.000 | ETA 2m 33s | step 0.38s | KE 14.2224 | drift +4.60% | fluid 11.8473 | solid 2.3752
  Impulse FP iterations last/mean/max 30/29.37/30
Step  1700/2000   85.0% | t 85.000 | ETA 1m 54s | step 0.38s | KE 14.1296 | drift +3.92% | fluid 11.0444 | solid 3.0852
  Impulse FP iterations last/mean/max 30/29.38/30
Step  1800/2000   90.0% | t 90.000 | ETA 1m 16s | step 0.39s | KE 14.2130 | drift +4.53% | fluid 11.4294 | solid 2.7836
  Impulse FP iterations last/mean/max 30/29.36/30
Step  1900/2000   95.0% | t 95.000 | ETA 38s | step 0.35s | KE 14.1468 | drift +4.04% | fluid 11.3767 | solid 2.7701
  Impulse FP iterations last/mean/max 29/29.37/30
Solver finished successfully - good job!
Results saved successfully.

================== Run summary ==================
  Bodies:            2
  Triangles / nodes: 256 / 516
  Timesteps:         2000  (dt = 0.05)
  Simulated time:    0 -> 100
  First-step setup:  0.511 s
  Mean time/step:    0.3788 s  (excl. first step)
  Total wall time:   12m 37s
  Impulse FP iters last/mean/max: 27 / 29.369 / 30
  Approx impulse solves/step:     29.370
  Impulse start cache hits/direct: 1999 / 1
  Impulse global drift P/H:       5.675986e-7 / 2.655506e-2
  Impulse per-body max drift P/H: 8.592546e-7 / 2.884533e-3
  CPU cores:         256 available, 8 Rayon worker thread(s)
  Started:           2026-06-22 20:15:25
  Finished:          2026-06-22 20:28:06
  Output file:       /work/e643/e643/shared/multi_ellip/studies/two_body_paper_sweeps/runs/ellipsoid_1_0p8_0p6/ellipsoid_1_0p8_0p6_rho0p03_E11_sep8_run02_impulse_noproj/multiple_body_complete.dat
================================================
