
================ Simulation setup ================
  Run label:         /work/e643/e643/shared/multi_ellip/studies/departing_sphericity_sweep/runs/spheroid_prolate/homogeneous/spheroid_prolate_homogeneous_eps0p01_rho1_E0p5_sep8_run07_impulse_noproj/
  Started:           2026-06-24 02:26:40
  Input file:        /work/e643/e643/shared/multi_ellip/studies/departing_sphericity_sweep/runs/spheroid_prolate/homogeneous/spheroid_prolate_homogeneous_eps0p01_rho1_E0p5_sep8_run07_impulse_noproj/input.txt
  Output file:       /work/e643/e643/shared/multi_ellip/studies/departing_sphericity_sweep/runs/spheroid_prolate/homogeneous/spheroid_prolate_homogeneous_eps0p01_rho1_E0p5_sep8_run07_impulse_noproj/multiple_body_complete.dat
  Bodies:            2
  Fluid density:     1
  Mesh:              ndiv 2 -> 256 triangles / 516 nodes
  Simulated time:    0 -> 100  (dt = 0.05, ~2000 steps)
  Output cadence:    every 1 step(s)
  Output rows:       ~2001
  Progress cadence:  every 100 step(s)
  CPU cores:         256 available, 8 Rayon worker thread(s)
  Strong coupling:   disabled
  Impulse scheme:    enabled
  Hamiltonian step:  disabled
  Hamiltonian midpt: disabled
  Variational step:  disabled
  Energy projection: disabled
  Projection particular metric: Euclidean
  Fluid KE gradient: disabled  (eps = 0.001, scale = 1, linear = 1, angular = 1)
  Fluid KE discrete gradient: disabled
  Impulse pair metric correction: disabled  (mode = pair discrete-gradient, cutoff = all pairs, inner/outer = 0/0, eps = 0.001, linear scale = 1, angular scale = 0)
  Impulse metric correction: disabled  (internal load constraint = disabled)
  Impulse variational defect probe: disabled
  Impulse quadratic pressure: disabled  (scale = 1)
  Added-mass stab:   disabled
  Exact BEM geometry: disabled
  Exact singular BEM: disabled
  Legacy singular SLP diagnostic: disabled
  Phi-dot blend:     0 (off)

  Solver guidance:
    - Strong coupling: use for stiff close-coupled runs; slower but more implicit.
    - Impulse scheme: use when impulse/momentum conservation or KE drift is the focus. Recommended.
    - Added-mass stab: use for higher mesh counts (ndiv > 3) to preserve stability - deprecated.
================================================
Solver starting - good luck!

Initial state:
  Body  1
    density:          1.000000
    shape axes ratio: (1.000000, 0.970590, 0.970590)
    initial KE ratio: 0.500000
    position:         (-4.000000, 0.000000, 0.000000)
    velocity:         (-5.153490, 0.047236, -2.306816)
    angular velocity: (1.127766, -5.963049, -1.627453)
    orientation:      (w=0.259332, i=0.937276, j=-0.139624, k=-0.186457)
  Body  2
    density:          1.000000
    shape axes ratio: (1.000000, 0.970590, 0.970590)
    initial KE ratio: 0.500000
    position:         (4.000000, 0.000000, 0.000000)
    velocity:         (-5.114994, 0.046884, -2.289584)
    angular velocity: (-4.576388, 4.003254, 1.583998)
    orientation:      (w=0.105582, i=-0.600916, j=-0.791785, k=-0.028799)

Preparing first step: implicit scheme, no bootstrap passes required.
First step may take longer than later steps.

First step completed in 0.317 s.

Step   100/2000    5.0% | t 5.000 | ETA 3m 33s | step 0.11s | KE 270.0407 | drift -0.31% | fluid 72.6396 | solid 197.4011
  Impulse FP iterations last/mean/max 8/7.88/8
Step   200/2000   10.0% | t 10.000 | ETA 3m 20s | step 0.11s | KE 271.0934 | drift +0.08% | fluid 72.4898 | solid 198.6036
  Impulse FP iterations last/mean/max 8/7.89/8
Step   300/2000   15.0% | t 15.000 | ETA 3m 4s | step 0.10s | KE 272.2070 | drift +0.49% | fluid 72.2540 | solid 199.9530
  Impulse FP iterations last/mean/max 8/7.92/8
Step   400/2000   20.0% | t 20.000 | ETA 2m 51s | step 0.10s | KE 272.2671 | drift +0.51% | fluid 72.4861 | solid 199.7810
  Impulse FP iterations last/mean/max 8/7.91/8
Step   500/2000   25.0% | t 25.000 | ETA 2m 39s | step 0.11s | KE 270.8027 | drift -0.03% | fluid 72.1846 | solid 198.6181
  Impulse FP iterations last/mean/max 8/7.92/8
Step   600/2000   30.0% | t 30.000 | ETA 2m 30s | step 0.11s | KE 267.7059 | drift -1.17% | fluid 72.7245 | solid 194.9814
  Impulse FP iterations last/mean/max 8/7.92/8
Step   700/2000   35.0% | t 35.000 | ETA 2m 20s | step 0.12s | KE 263.2184 | drift -2.83% | fluid 72.3393 | solid 190.8791
  Impulse FP iterations last/mean/max 8/7.93/8
Step   800/2000   40.0% | t 40.000 | ETA 2m 10s | step 0.12s | KE 257.8410 | drift -4.81% | fluid 72.3378 | solid 185.5032
  Impulse FP iterations last/mean/max 8/7.94/8
Step   900/2000   45.0% | t 45.000 | ETA 2m 0s | step 0.12s | KE 252.7402 | drift -6.70% | fluid 72.6571 | solid 180.0832
  Impulse FP iterations last/mean/max 8/7.94/8
Step  1000/2000   50.0% | t 50.000 | ETA 1m 49s | step 0.12s | KE 248.2003 | drift -8.37% | fluid 72.3287 | solid 175.8716
  Impulse FP iterations last/mean/max 8/7.95/8
Step  1100/2000   55.0% | t 55.000 | ETA 1m 39s | step 0.11s | KE 245.0478 | drift -9.54% | fluid 72.0896 | solid 172.9581
  Impulse FP iterations last/mean/max 8/7.95/8
Step  1200/2000   60.0% | t 60.000 | ETA 1m 28s | step 0.12s | KE 244.5655 | drift -9.71% | fluid 72.0396 | solid 172.5258
  Impulse FP iterations last/mean/max 8/7.95/8
Step  1300/2000   65.0% | t 65.000 | ETA 1m 17s | step 0.10s | KE 247.4498 | drift -8.65% | fluid 72.5928 | solid 174.8570
  Impulse FP iterations last/mean/max 8/7.95/8
Step  1400/2000   70.0% | t 70.000 | ETA 1m 6s | step 0.11s | KE 252.8873 | drift -6.64% | fluid 72.6999 | solid 180.1874
  Impulse FP iterations last/mean/max 8/7.96/8
Step  1500/2000   75.0% | t 75.000 | ETA 55s | step 0.12s | KE 258.9367 | drift -4.41% | fluid 72.3571 | solid 186.5796
  Impulse FP iterations last/mean/max 8/7.95/8
Step  1600/2000   80.0% | t 80.000 | ETA 44s | step 0.11s | KE 263.7146 | drift -2.65% | fluid 72.5192 | solid 191.1954
  Impulse FP iterations last/mean/max 8/7.95/8
Step  1700/2000   85.0% | t 85.000 | ETA 33s | step 0.12s | KE 266.3606 | drift -1.67% | fluid 72.1881 | solid 194.1725
  Impulse FP iterations last/mean/max 8/7.95/8
Step  1800/2000   90.0% | t 90.000 | ETA 22s | step 0.11s | KE 266.7408 | drift -1.53% | fluid 72.4185 | solid 194.3223
  Impulse FP iterations last/mean/max 8/7.95/8
Step  1900/2000   95.0% | t 95.000 | ETA 11s | step 0.10s | KE 265.5180 | drift -1.98% | fluid 72.5842 | solid 192.9337
  Impulse FP iterations last/mean/max 8/7.94/8
Solver finished successfully - good job!
Results saved successfully.

================== Run summary ==================
  Bodies:            2
  Triangles / nodes: 256 / 516
  Timesteps:         2000  (dt = 0.05)
  Simulated time:    0 -> 100
  First-step setup:  0.317 s
  Mean time/step:    0.1093 s  (excl. first step)
  Total wall time:   3m 38s
  Impulse FP iters last/mean/max: 8 / 7.943 / 8
  Approx impulse solves/step:     7.943
  Impulse start cache hits/direct: 1999 / 1
  Impulse global drift P/H:       9.937142e-9 / 6.184661e-2
  Impulse per-body max drift P/H: 1.108231e-8 / 6.855032e-3
  CPU cores:         256 available, 8 Rayon worker thread(s)
  Started:           2026-06-24 02:26:40
  Finished:          2026-06-24 02:30:19
  Output file:       /work/e643/e643/shared/multi_ellip/studies/departing_sphericity_sweep/runs/spheroid_prolate/homogeneous/spheroid_prolate_homogeneous_eps0p01_rho1_E0p5_sep8_run07_impulse_noproj/multiple_body_complete.dat
================================================
