
================ Simulation setup ================
  Run label:         /work/e643/e643/shared/multi_ellip/studies/departing_sphericity_sweep/runs/triaxial/heterogeneous_sphere/triaxial_heterogeneous_sphere_eps0p1_rho1_E0p5_sep8_run04_impulse_noproj/
  Started:           2026-06-24 02:46:58
  Input file:        /work/e643/e643/shared/multi_ellip/studies/departing_sphericity_sweep/runs/triaxial/heterogeneous_sphere/triaxial_heterogeneous_sphere_eps0p1_rho1_E0p5_sep8_run04_impulse_noproj/input.txt
  Output file:       /work/e643/e643/shared/multi_ellip/studies/departing_sphericity_sweep/runs/triaxial/heterogeneous_sphere/triaxial_heterogeneous_sphere_eps0p1_rho1_E0p5_sep8_run04_impulse_noproj/multiple_body_complete.dat
  Bodies:            2
  Fluid density:     1
  Mesh:              ndiv 2 -> 256 triangles / 516 nodes
  Simulated time:    0 -> 100  (dt = 0.05, ~2000 steps)
  Output cadence:    every 1 step(s)
  Output rows:       ~2001
  Progress cadence:  every 100 step(s)
  CPU cores:         256 available, 8 Rayon worker thread(s)
  Strong coupling:   disabled
  Impulse scheme:    enabled
  Hamiltonian step:  disabled
  Hamiltonian midpt: disabled
  Variational step:  disabled
  Energy projection: disabled
  Projection particular metric: Euclidean
  Fluid KE gradient: disabled  (eps = 0.001, scale = 1, linear = 1, angular = 1)
  Fluid KE discrete gradient: disabled
  Impulse pair metric correction: disabled  (mode = pair discrete-gradient, cutoff = all pairs, inner/outer = 0/0, eps = 0.001, linear scale = 1, angular scale = 0)
  Impulse metric correction: disabled  (internal load constraint = disabled)
  Impulse variational defect probe: disabled
  Impulse quadratic pressure: disabled  (scale = 1)
  Added-mass stab:   disabled
  Exact BEM geometry: disabled
  Exact singular BEM: disabled
  Legacy singular SLP diagnostic: disabled
  Phi-dot blend:     0 (off)

  Solver guidance:
    - Strong coupling: use for stiff close-coupled runs; slower but more implicit.
    - Impulse scheme: use when impulse/momentum conservation or KE drift is the focus. Recommended.
    - Added-mass stab: use for higher mesh counts (ndiv > 3) to preserve stability - deprecated.
================================================
Solver starting - good luck!

Initial state:
  Body  1
    density:          1.000000
    shape axes ratio: (1.000000, 0.909091, 0.826446)
    initial KE ratio: 0.500000
    position:         (-4.000000, 0.000000, 0.000000)
    velocity:         (1.735223, -3.774746, 3.473942)
    angular velocity: (-5.811104, 2.370388, -0.301247)
    orientation:      (w=0.647318, i=0.531649, j=0.480872, k=-0.259021)
  Body  2
    density:          1.000000
    shape axes ratio: (1.000000, 1.000000, 1.000000)
    initial KE ratio: 0.500000
    position:         (4.000000, 0.000000, 0.000000)
    velocity:         (1.800690, -3.917162, 3.605009)
    angular velocity: (-1.735944, 0.457385, -6.021272)
    orientation:      (w=0.461866, i=-0.564660, j=0.514684, k=-0.450488)

Preparing first step: implicit scheme, no bootstrap passes required.
First step may take longer than later steps.

First step completed in 0.294 s.

Step   100/2000    5.0% | t 5.000 | ETA 4m 5s | step 0.14s | KE 260.4819 | drift -2.64% | fluid 70.6272 | solid 189.8547
  Impulse FP iterations last/mean/max 9/8.95/9
Step   200/2000   10.0% | t 10.000 | ETA 3m 52s | step 0.13s | KE 260.5543 | drift -2.62% | fluid 70.9804 | solid 189.5739
  Impulse FP iterations last/mean/max 9/8.93/9
Step   300/2000   15.0% | t 15.000 | ETA 3m 39s | step 0.13s | KE 255.4954 | drift -4.51% | fluid 72.1925 | solid 183.3029
  Impulse FP iterations last/mean/max 9/8.93/9
Step   400/2000   20.0% | t 20.000 | ETA 3m 26s | step 0.13s | KE 257.2994 | drift -3.83% | fluid 73.3818 | solid 183.9176
  Impulse FP iterations last/mean/max 9/8.93/9
Step   500/2000   25.0% | t 25.000 | ETA 3m 12s | step 0.13s | KE 256.3711 | drift -4.18% | fluid 71.8965 | solid 184.4746
  Impulse FP iterations last/mean/max 9/8.91/9
Step   600/2000   30.0% | t 30.000 | ETA 2m 59s | step 0.12s | KE 258.1160 | drift -3.53% | fluid 71.1152 | solid 187.0008
  Impulse FP iterations last/mean/max 8/8.91/9
Step   700/2000   35.0% | t 35.000 | ETA 2m 46s | step 0.11s | KE 258.3182 | drift -3.45% | fluid 70.6580 | solid 187.6603
  Impulse FP iterations last/mean/max 8/8.91/9
Step   800/2000   40.0% | t 40.000 | ETA 2m 33s | step 0.13s | KE 259.4343 | drift -3.04% | fluid 72.1948 | solid 187.2395
  Impulse FP iterations last/mean/max 9/8.90/9
Step   900/2000   45.0% | t 45.000 | ETA 2m 20s | step 0.13s | KE 259.7530 | drift -2.92% | fluid 71.9815 | solid 187.7714
  Impulse FP iterations last/mean/max 9/8.90/9
Step  1000/2000   50.0% | t 50.000 | ETA 2m 7s | step 0.13s | KE 260.4628 | drift -2.65% | fluid 70.5575 | solid 189.9052
  Impulse FP iterations last/mean/max 9/8.90/9
Step  1100/2000   55.0% | t 55.000 | ETA 1m 55s | step 0.12s | KE 260.6578 | drift -2.58% | fluid 71.3970 | solid 189.2608
  Impulse FP iterations last/mean/max 9/8.90/9
Step  1200/2000   60.0% | t 60.000 | ETA 1m 42s | step 0.12s | KE 261.0765 | drift -2.42% | fluid 72.0713 | solid 189.0052
  Impulse FP iterations last/mean/max 9/8.89/9
Step  1300/2000   65.0% | t 65.000 | ETA 1m 29s | step 0.12s | KE 261.1429 | drift -2.40% | fluid 73.3527 | solid 187.7902
  Impulse FP iterations last/mean/max 9/8.89/9
Step  1400/2000   70.0% | t 70.000 | ETA 1m 16s | step 0.12s | KE 261.5818 | drift -2.23% | fluid 71.9226 | solid 189.6591
  Impulse FP iterations last/mean/max 9/8.89/9
Step  1500/2000   75.0% | t 75.000 | ETA 1m 3s | step 0.13s | KE 261.7185 | drift -2.18% | fluid 70.4888 | solid 191.2297
  Impulse FP iterations last/mean/max 9/8.89/9
Step  1600/2000   80.0% | t 80.000 | ETA 51s | step 0.13s | KE 261.9555 | drift -2.09% | fluid 70.3723 | solid 191.5832
  Impulse FP iterations last/mean/max 9/8.89/9
Step  1700/2000   85.0% | t 85.000 | ETA 38s | step 0.13s | KE 261.9735 | drift -2.09% | fluid 71.9824 | solid 189.9910
  Impulse FP iterations last/mean/max 9/8.89/9
Step  1800/2000   90.0% | t 90.000 | ETA 25s | step 0.12s | KE 262.0548 | drift -2.06% | fluid 72.7599 | solid 189.2949
  Impulse FP iterations last/mean/max 9/8.89/9
Step  1900/2000   95.0% | t 95.000 | ETA 12s | step 0.10s | KE 262.1272 | drift -2.03% | fluid 71.4350 | solid 190.6921
  Impulse FP iterations last/mean/max 9/8.89/9
Solver finished successfully - good job!
Results saved successfully.

================== Run summary ==================
  Bodies:            2
  Triangles / nodes: 256 / 516
  Timesteps:         2000  (dt = 0.05)
  Simulated time:    0 -> 100
  First-step setup:  0.294 s
  Mean time/step:    0.1244 s  (excl. first step)
  Total wall time:   4m 8s
  Impulse FP iters last/mean/max: 9 / 8.896 / 9
  Approx impulse solves/step:     8.897
  Impulse start cache hits/direct: 1999 / 1
  Impulse global drift P/H:       7.431039e-9 / 1.081535e-2
  Impulse per-body max drift P/H: 1.530447e-8 / 1.663165e-3
  CPU cores:         256 available, 8 Rayon worker thread(s)
  Started:           2026-06-24 02:46:58
  Finished:          2026-06-24 02:51:07
  Output file:       /work/e643/e643/shared/multi_ellip/studies/departing_sphericity_sweep/runs/triaxial/heterogeneous_sphere/triaxial_heterogeneous_sphere_eps0p1_rho1_E0p5_sep8_run04_impulse_noproj/multiple_body_complete.dat
================================================
