
================ Simulation setup ================
  Run label:         /work/e643/e643/shared/multi_ellip/studies/two_body_paper_sweeps/runs/ellipsoid_1_0p8_0p6/ellipsoid_1_0p8_0p6_rho0p3_E30_sep8_run01_impulse_noproj/
  Started:           2026-06-22 19:47:31
  Input file:        /work/e643/e643/shared/multi_ellip/studies/two_body_paper_sweeps/runs/ellipsoid_1_0p8_0p6/ellipsoid_1_0p8_0p6_rho0p3_E30_sep8_run01_impulse_noproj/input.txt
  Output file:       /work/e643/e643/shared/multi_ellip/studies/two_body_paper_sweeps/runs/ellipsoid_1_0p8_0p6/ellipsoid_1_0p8_0p6_rho0p3_E30_sep8_run01_impulse_noproj/multiple_body_complete.dat
  Bodies:            2
  Fluid density:     1
  Mesh:              ndiv 2 -> 256 triangles / 516 nodes
  Simulated time:    0 -> 100  (dt = 0.05, ~2000 steps)
  Output cadence:    every 1 step(s)
  Output rows:       ~2001
  Progress cadence:  every 100 step(s)
  CPU cores:         256 available, 8 Rayon worker thread(s)
  Strong coupling:   disabled
  Impulse scheme:    enabled
  Hamiltonian step:  disabled
  Hamiltonian midpt: disabled
  Variational step:  disabled
  Energy projection: disabled
  Projection particular metric: Euclidean
  Fluid KE gradient: disabled  (eps = 0.001, scale = 1, linear = 1, angular = 1)
  Fluid KE discrete gradient: disabled
  Impulse pair metric correction: disabled  (mode = pair discrete-gradient, cutoff = all pairs, inner/outer = 0/0, eps = 0.001, linear scale = 1, angular scale = 0)
  Impulse metric correction: disabled  (internal load constraint = disabled)
  Impulse variational defect probe: disabled
  Impulse quadratic pressure: disabled  (scale = 1)
  Added-mass stab:   disabled
  Exact BEM geometry: disabled
  Exact singular BEM: disabled
  Legacy singular SLP diagnostic: disabled
  Phi-dot blend:     0 (off)

  Solver guidance:
    - Strong coupling: use for stiff close-coupled runs; slower but more implicit.
    - Impulse scheme: use when impulse/momentum conservation or KE drift is the focus. Recommended.
    - Added-mass stab: use for higher mesh counts (ndiv > 3) to preserve stability - deprecated.
================================================
Solver starting - good luck!

Initial state:
  Body  1
    density:          0.300000
    shape axes ratio: (1.000000, 0.800000, 0.600000)
    initial KE ratio: 30.000000
    position:         (-4.000000, 0.000000, 0.000000)
    velocity:         (0.503244, -0.288775, -0.385769)
    angular velocity: (-5.144571, 3.361660, 1.308070)
    orientation:      (w=0.447214, i=0.894427, j=0.000000, k=0.000000)
  Body  2
    density:          0.300000
    shape axes ratio: (1.000000, 0.800000, 0.600000)
    initial KE ratio: 30.000000
    position:         (4.000000, 0.000000, 0.000000)
    velocity:         (0.486221, -0.279007, -0.372720)
    angular velocity: (-6.003791, -0.098663, -1.850184)
    orientation:      (w=0.707107, i=0.000000, j=0.707107, k=0.000000)

Preparing first step: implicit scheme, no bootstrap passes required.
First step may take longer than later steps.

First step completed in 0.372 s.

Step   100/2000    5.0% | t 5.000 | ETA 6m 6s | step 0.20s | KE 27.3797 | drift -0.34% | fluid 4.6398 | solid 22.7398
  Impulse FP iterations last/mean/max 14/14.04/15
Step   200/2000   10.0% | t 10.000 | ETA 5m 47s | step 0.20s | KE 27.3076 | drift -0.60% | fluid 6.1446 | solid 21.1629
  Impulse FP iterations last/mean/max 14/14.09/15
Step   300/2000   15.0% | t 15.000 | ETA 5m 29s | step 0.21s | KE 27.2647 | drift -0.76% | fluid 6.4367 | solid 20.8279
  Impulse FP iterations last/mean/max 15/14.11/15
Step   400/2000   20.0% | t 20.000 | ETA 5m 8s | step 0.18s | KE 27.2526 | drift -0.80% | fluid 4.6788 | solid 22.5738
  Impulse FP iterations last/mean/max 13/14.06/15
Step   500/2000   25.0% | t 25.000 | ETA 4m 48s | step 0.20s | KE 27.2434 | drift -0.84% | fluid 7.2707 | solid 19.9727
  Impulse FP iterations last/mean/max 15/14.05/16
Step   600/2000   30.0% | t 30.000 | ETA 4m 26s | step 0.19s | KE 27.2468 | drift -0.82% | fluid 7.0217 | solid 20.2251
  Impulse FP iterations last/mean/max 15/14.05/16
Step   700/2000   35.0% | t 35.000 | ETA 4m 4s | step 0.18s | KE 27.2435 | drift -0.84% | fluid 6.6434 | solid 20.6002
  Impulse FP iterations last/mean/max 15/14.06/16
Step   800/2000   40.0% | t 40.000 | ETA 3m 41s | step 0.18s | KE 27.2478 | drift -0.82% | fluid 5.0499 | solid 22.1980
  Impulse FP iterations last/mean/max 14/14.04/16
Step   900/2000   45.0% | t 45.000 | ETA 3m 22s | step 0.18s | KE 27.2467 | drift -0.82% | fluid 6.4338 | solid 20.8129
  Impulse FP iterations last/mean/max 14/14.03/16
Step  1000/2000   50.0% | t 50.000 | ETA 3m 4s | step 0.22s | KE 27.2489 | drift -0.82% | fluid 7.4212 | solid 19.8277
  Impulse FP iterations last/mean/max 15/14.05/16
Step  1100/2000   55.0% | t 55.000 | ETA 2m 46s | step 0.21s | KE 27.2452 | drift -0.83% | fluid 7.1246 | solid 20.1205
  Impulse FP iterations last/mean/max 15/14.06/16
Step  1200/2000   60.0% | t 60.000 | ETA 2m 28s | step 0.19s | KE 27.2503 | drift -0.81% | fluid 5.5853 | solid 21.6650
  Impulse FP iterations last/mean/max 14/14.05/16
Step  1300/2000   65.0% | t 65.000 | ETA 2m 10s | step 0.19s | KE 27.2482 | drift -0.82% | fluid 5.9505 | solid 21.2977
  Impulse FP iterations last/mean/max 15/14.05/16
Step  1400/2000   70.0% | t 70.000 | ETA 1m 52s | step 0.21s | KE 27.2478 | drift -0.82% | fluid 6.7979 | solid 20.4500
  Impulse FP iterations last/mean/max 15/14.06/16
Step  1500/2000   75.0% | t 75.000 | ETA 1m 33s | step 0.20s | KE 27.2487 | drift -0.82% | fluid 5.3346 | solid 21.9141
  Impulse FP iterations last/mean/max 15/14.07/16
Step  1600/2000   80.0% | t 80.000 | ETA 1m 15s | step 0.19s | KE 27.2500 | drift -0.81% | fluid 5.6624 | solid 21.5876
  Impulse FP iterations last/mean/max 14/14.07/16
Step  1700/2000   85.0% | t 85.000 | ETA 56s | step 0.21s | KE 27.2472 | drift -0.82% | fluid 5.5038 | solid 21.7434
  Impulse FP iterations last/mean/max 15/14.07/16
Step  1800/2000   90.0% | t 90.000 | ETA 37s | step 0.20s | KE 27.2450 | drift -0.83% | fluid 6.9067 | solid 20.3383
  Impulse FP iterations last/mean/max 14/14.06/16
Step  1900/2000   95.0% | t 95.000 | ETA 18s | step 0.20s | KE 27.2440 | drift -0.83% | fluid 6.9750 | solid 20.2691
  Impulse FP iterations last/mean/max 14/14.06/16
Solver finished successfully - good job!
Results saved successfully.

================== Run summary ==================
  Bodies:            2
  Triangles / nodes: 256 / 516
  Timesteps:         2000  (dt = 0.05)
  Simulated time:    0 -> 100
  First-step setup:  0.372 s
  Mean time/step:    0.1882 s  (excl. first step)
  Total wall time:   6m 16s
  Impulse FP iters last/mean/max: 14 / 14.069 / 16
  Approx impulse solves/step:     14.070
  Impulse start cache hits/direct: 1999 / 1
  Impulse global drift P/H:       4.732313e-8 / 1.750121e-2
  Impulse per-body max drift P/H: 6.069133e-8 / 9.507627e-3
  CPU cores:         256 available, 8 Rayon worker thread(s)
  Started:           2026-06-22 19:47:31
  Finished:          2026-06-22 19:53:48
  Output file:       /work/e643/e643/shared/multi_ellip/studies/two_body_paper_sweeps/runs/ellipsoid_1_0p8_0p6/ellipsoid_1_0p8_0p6_rho0p3_E30_sep8_run01_impulse_noproj/multiple_body_complete.dat
================================================
