
================ Simulation setup ================
  Run label:         /work/e643/e643/shared/multi_ellip/studies/two_body_paper_sweeps/runs/spheroid_1_0p7_0p7/spheroid_1_0p7_0p7_rho4_E0p55_sep11_run03_impulse_noproj/
  Started:           2026-06-24 01:21:59
  Input file:        /work/e643/e643/shared/multi_ellip/studies/two_body_paper_sweeps/runs/spheroid_1_0p7_0p7/spheroid_1_0p7_0p7_rho4_E0p55_sep11_run03_impulse_noproj/input.txt
  Output file:       /work/e643/e643/shared/multi_ellip/studies/two_body_paper_sweeps/runs/spheroid_1_0p7_0p7/spheroid_1_0p7_0p7_rho4_E0p55_sep11_run03_impulse_noproj/multiple_body_complete.dat
  Bodies:            2
  Fluid density:     1
  Mesh:              ndiv 2 -> 256 triangles / 516 nodes
  Simulated time:    0 -> 100  (dt = 0.05, ~2000 steps)
  Output cadence:    every 1 step(s)
  Output rows:       ~2001
  Progress cadence:  every 100 step(s)
  CPU cores:         256 available, 8 Rayon worker thread(s)
  Strong coupling:   disabled
  Impulse scheme:    enabled
  Hamiltonian step:  disabled
  Hamiltonian midpt: disabled
  Variational step:  disabled
  Energy projection: disabled
  Projection particular metric: Euclidean
  Fluid KE gradient: disabled  (eps = 0.001, scale = 1, linear = 1, angular = 1)
  Fluid KE discrete gradient: disabled
  Impulse pair metric correction: disabled  (mode = pair discrete-gradient, cutoff = all pairs, inner/outer = 0/0, eps = 0.001, linear scale = 1, angular scale = 0)
  Impulse metric correction: disabled  (internal load constraint = disabled)
  Impulse variational defect probe: disabled
  Impulse quadratic pressure: disabled  (scale = 1)
  Added-mass stab:   disabled
  Exact BEM geometry: disabled
  Exact singular BEM: disabled
  Legacy singular SLP diagnostic: disabled
  Phi-dot blend:     0 (off)

  Solver guidance:
    - Strong coupling: use for stiff close-coupled runs; slower but more implicit.
    - Impulse scheme: use when impulse/momentum conservation or KE drift is the focus. Recommended.
    - Added-mass stab: use for higher mesh counts (ndiv > 3) to preserve stability - deprecated.
================================================
Solver starting - good luck!

Initial state:
  Body  1
    density:          4.000000
    shape axes ratio: (1.000000, 0.700000, 0.700000)
    initial KE ratio: 0.550000
    position:         (-5.500000, 0.000000, 0.000000)
    velocity:         (5.495458, 1.447840, -0.402385)
    angular velocity: (2.560931, 3.629329, 4.443874)
    orientation:      (w=-0.327553, i=0.833229, j=0.433219, k=-0.103726)
  Body  2
    density:          4.000000
    shape axes ratio: (1.000000, 0.700000, 0.700000)
    initial KE ratio: 0.550000
    position:         (5.500000, 0.000000, 0.000000)
    velocity:         (4.992552, 1.315344, -0.365562)
    angular velocity: (5.055399, -0.795356, 3.645376)
    orientation:      (w=0.857526, i=-0.121422, j=0.222356, k=-0.447732)

Preparing first step: implicit scheme, no bootstrap passes required.
First step may take longer than later steps.

First step completed in 0.321 s.

Step   100/2000    5.0% | t 5.000 | ETA 3m 16s | step 0.10s | KE 842.8147 | drift -0.39% | fluid 81.5537 | solid 761.2610
  Impulse FP iterations last/mean/max 7/7.20/8
Step   200/2000   10.0% | t 10.000 | ETA 3m 9s | step 0.10s | KE 839.7046 | drift -0.76% | fluid 73.8638 | solid 765.8407
  Impulse FP iterations last/mean/max 7/7.32/8
Step   300/2000   15.0% | t 15.000 | ETA 3m 1s | step 0.10s | KE 838.4524 | drift -0.91% | fluid 79.1662 | solid 759.2861
  Impulse FP iterations last/mean/max 7/7.43/8
Step   400/2000   20.0% | t 20.000 | ETA 2m 52s | step 0.12s | KE 865.6695 | drift +2.31% | fluid 63.0038 | solid 802.6657
  Impulse FP iterations last/mean/max 8/7.55/8
Step   500/2000   25.0% | t 25.000 | ETA 2m 44s | step 0.12s | KE 931.2126 | drift +10.05% | fluid 70.2026 | solid 861.0100
  Impulse FP iterations last/mean/max 8/7.64/9
Step   600/2000   30.0% | t 30.000 | ETA 2m 34s | step 0.10s | KE 954.6411 | drift +12.82% | fluid 72.7925 | solid 881.8486
  Impulse FP iterations last/mean/max 8/7.70/9
Step   700/2000   35.0% | t 35.000 | ETA 2m 23s | step 0.10s | KE 951.6693 | drift +12.47% | fluid 76.2406 | solid 875.4287
  Impulse FP iterations last/mean/max 7/7.70/9
Step   800/2000   40.0% | t 40.000 | ETA 2m 12s | step 0.10s | KE 947.9593 | drift +12.03% | fluid 81.6892 | solid 866.2700
  Impulse FP iterations last/mean/max 7/7.66/9
Step   900/2000   45.0% | t 45.000 | ETA 2m 0s | step 0.11s | KE 947.7322 | drift +12.01% | fluid 65.5439 | solid 882.1882
  Impulse FP iterations last/mean/max 8/7.61/9
Step  1000/2000   50.0% | t 50.000 | ETA 1m 48s | step 0.10s | KE 946.6155 | drift +11.87% | fluid 71.3688 | solid 875.2467
  Impulse FP iterations last/mean/max 7/7.57/9
Step  1100/2000   55.0% | t 55.000 | ETA 1m 37s | step 0.09s | KE 945.2315 | drift +11.71% | fluid 80.5361 | solid 864.6953
  Impulse FP iterations last/mean/max 7/7.54/9
Step  1200/2000   60.0% | t 60.000 | ETA 1m 25s | step 0.10s | KE 944.1217 | drift +11.58% | fluid 77.8780 | solid 866.2438
  Impulse FP iterations last/mean/max 7/7.51/9
Step  1300/2000   65.0% | t 65.000 | ETA 1m 14s | step 0.09s | KE 943.1556 | drift +11.47% | fluid 72.2164 | solid 870.9392
  Impulse FP iterations last/mean/max 7/7.49/9
Step  1400/2000   70.0% | t 70.000 | ETA 1m 2s | step 0.10s | KE 942.4484 | drift +11.38% | fluid 79.1599 | solid 863.2884
  Impulse FP iterations last/mean/max 7/7.47/9
Step  1500/2000   75.0% | t 75.000 | ETA 52s | step 0.10s | KE 943.3409 | drift +11.49% | fluid 66.6195 | solid 876.7214
  Impulse FP iterations last/mean/max 8/7.46/9
Step  1600/2000   80.0% | t 80.000 | ETA 41s | step 0.10s | KE 943.0588 | drift +11.45% | fluid 74.0585 | solid 869.0003
  Impulse FP iterations last/mean/max 7/7.45/9
Step  1700/2000   85.0% | t 85.000 | ETA 31s | step 0.12s | KE 943.1780 | drift +11.47% | fluid 71.9630 | solid 871.2150
  Impulse FP iterations last/mean/max 8/7.43/9
Step  1800/2000   90.0% | t 90.000 | ETA 20s | step 0.08s | KE 943.1452 | drift +11.46% | fluid 80.5578 | solid 862.5874
  Impulse FP iterations last/mean/max 7/7.41/9
Step  1900/2000   95.0% | t 95.000 | ETA 10s | step 0.08s | KE 943.5919 | drift +11.52% | fluid 74.3274 | solid 869.2645
  Impulse FP iterations last/mean/max 7/7.40/9
Solver finished successfully - good job!
Results saved successfully.

================== Run summary ==================
  Bodies:            2
  Triangles / nodes: 256 / 516
  Timesteps:         2000  (dt = 0.05)
  Simulated time:    0 -> 100
  First-step setup:  0.321 s
  Mean time/step:    0.1020 s  (excl. first step)
  Total wall time:   3m 24s
  Impulse FP iters last/mean/max: 7 / 7.393 / 9
  Approx impulse solves/step:     7.393
  Impulse start cache hits/direct: 1999 / 1
  Impulse global drift P/H:       5.860831e-9 / 3.599862e-2
  Impulse per-body max drift P/H: 9.425777e-9 / 3.136897e-2
  CPU cores:         256 available, 8 Rayon worker thread(s)
  Started:           2026-06-24 01:21:59
  Finished:          2026-06-24 01:25:23
  Output file:       /work/e643/e643/shared/multi_ellip/studies/two_body_paper_sweeps/runs/spheroid_1_0p7_0p7/spheroid_1_0p7_0p7_rho4_E0p55_sep11_run03_impulse_noproj/multiple_body_complete.dat
================================================
