
================ Simulation setup ================
  Run label:         /work/e643/e643/shared/multi_ellip/studies/two_body_paper_sweeps/runs/spheroid_1_0p7_0p7/spheroid_1_0p7_0p7_rho0p1_E0p2_sep8_run01_impulse_noproj/
  Started:           2026-06-22 19:52:03
  Input file:        /work/e643/e643/shared/multi_ellip/studies/two_body_paper_sweeps/runs/spheroid_1_0p7_0p7/spheroid_1_0p7_0p7_rho0p1_E0p2_sep8_run01_impulse_noproj/input.txt
  Output file:       /work/e643/e643/shared/multi_ellip/studies/two_body_paper_sweeps/runs/spheroid_1_0p7_0p7/spheroid_1_0p7_0p7_rho0p1_E0p2_sep8_run01_impulse_noproj/multiple_body_complete.dat
  Bodies:            2
  Fluid density:     1
  Mesh:              ndiv 2 -> 256 triangles / 516 nodes
  Simulated time:    0 -> 100  (dt = 0.05, ~2000 steps)
  Output cadence:    every 1 step(s)
  Output rows:       ~2001
  Progress cadence:  every 100 step(s)
  CPU cores:         256 available, 8 Rayon worker thread(s)
  Strong coupling:   disabled
  Impulse scheme:    enabled
  Hamiltonian step:  disabled
  Hamiltonian midpt: disabled
  Variational step:  disabled
  Energy projection: disabled
  Projection particular metric: Euclidean
  Fluid KE gradient: disabled  (eps = 0.001, scale = 1, linear = 1, angular = 1)
  Fluid KE discrete gradient: disabled
  Impulse pair metric correction: disabled  (mode = pair discrete-gradient, cutoff = all pairs, inner/outer = 0/0, eps = 0.001, linear scale = 1, angular scale = 0)
  Impulse metric correction: disabled  (internal load constraint = disabled)
  Impulse variational defect probe: disabled
  Impulse quadratic pressure: disabled  (scale = 1)
  Added-mass stab:   disabled
  Exact BEM geometry: disabled
  Exact singular BEM: disabled
  Legacy singular SLP diagnostic: disabled
  Phi-dot blend:     0 (off)

  Solver guidance:
    - Strong coupling: use for stiff close-coupled runs; slower but more implicit.
    - Impulse scheme: use when impulse/momentum conservation or KE drift is the focus. Recommended.
    - Added-mass stab: use for higher mesh counts (ndiv > 3) to preserve stability - deprecated.
================================================
Solver starting - good luck!

Initial state:
  Body  1
    density:          0.100000
    shape axes ratio: (1.000000, 0.700000, 0.700000)
    initial KE ratio: 0.200000
    position:         (-4.000000, 0.000000, 0.000000)
    velocity:         (5.980322, 6.638694, 3.702494)
    angular velocity: (1.156031, 1.427273, 6.008735)
    orientation:      (w=0.447214, i=0.894427, j=0.000000, k=0.000000)
  Body  2
    density:          0.100000
    shape axes ratio: (1.000000, 0.700000, 0.700000)
    initial KE ratio: 0.200000
    position:         (4.000000, 0.000000, 0.000000)
    velocity:         (5.595902, 6.211954, 3.464495)
    angular velocity: (-3.939759, -3.414736, -3.506608)
    orientation:      (w=0.707107, i=0.000000, j=0.707107, k=0.000000)

Preparing first step: implicit scheme, no bootstrap passes required.
First step may take longer than later steps.

First step completed in 0.356 s.

Step   100/2000    5.0% | t 5.000 | ETA 7m 27s | step 0.22s | KE 263.2711 | drift +0.21% | fluid 215.0464 | solid 48.2247
  Impulse FP iterations last/mean/max 17/16.58/18
Step   200/2000   10.0% | t 10.000 | ETA 6m 57s | step 0.21s | KE 265.4492 | drift +1.04% | fluid 218.2843 | solid 47.1649
  Impulse FP iterations last/mean/max 16/16.52/19
Step   300/2000   15.0% | t 15.000 | ETA 6m 33s | step 0.24s | KE 264.3773 | drift +0.63% | fluid 215.7202 | solid 48.6570
  Impulse FP iterations last/mean/max 17/16.56/19
Step   400/2000   20.0% | t 20.000 | ETA 6m 8s | step 0.21s | KE 264.1888 | drift +0.56% | fluid 217.8866 | solid 46.3023
  Impulse FP iterations last/mean/max 16/16.58/19
Step   500/2000   25.0% | t 25.000 | ETA 5m 44s | step 0.23s | KE 263.6664 | drift +0.36% | fluid 217.5384 | solid 46.1279
  Impulse FP iterations last/mean/max 17/16.55/19
Step   600/2000   30.0% | t 30.000 | ETA 5m 20s | step 0.26s | KE 263.4612 | drift +0.28% | fluid 215.7500 | solid 47.7112
  Impulse FP iterations last/mean/max 18/16.54/19
Step   700/2000   35.0% | t 35.000 | ETA 4m 57s | step 0.21s | KE 264.9859 | drift +0.86% | fluid 219.0641 | solid 45.9218
  Impulse FP iterations last/mean/max 16/16.55/19
Step   800/2000   40.0% | t 40.000 | ETA 4m 34s | step 0.25s | KE 263.3663 | drift +0.25% | fluid 214.9341 | solid 48.4322
  Impulse FP iterations last/mean/max 17/16.54/19
Step   900/2000   45.0% | t 45.000 | ETA 4m 11s | step 0.21s | KE 264.0647 | drift +0.51% | fluid 218.1433 | solid 45.9214
  Impulse FP iterations last/mean/max 16/16.55/19
Step  1000/2000   50.0% | t 50.000 | ETA 3m 48s | step 0.23s | KE 264.3490 | drift +0.62% | fluid 217.7081 | solid 46.6410
  Impulse FP iterations last/mean/max 17/16.55/19
Step  1100/2000   55.0% | t 55.000 | ETA 3m 25s | step 0.21s | KE 264.3313 | drift +0.61% | fluid 215.6859 | solid 48.6454
  Impulse FP iterations last/mean/max 17/16.55/19
Step  1200/2000   60.0% | t 60.000 | ETA 3m 2s | step 0.21s | KE 265.0972 | drift +0.90% | fluid 218.1981 | solid 46.8991
  Impulse FP iterations last/mean/max 15/16.55/19
Step  1300/2000   65.0% | t 65.000 | ETA 2m 39s | step 0.23s | KE 263.0794 | drift +0.14% | fluid 215.5101 | solid 47.5693
  Impulse FP iterations last/mean/max 18/16.55/19
Step  1400/2000   70.0% | t 70.000 | ETA 2m 16s | step 0.22s | KE 263.4841 | drift +0.29% | fluid 219.0079 | solid 44.4762
  Impulse FP iterations last/mean/max 16/16.54/19
Step  1500/2000   75.0% | t 75.000 | ETA 1m 53s | step 0.25s | KE 263.5252 | drift +0.31% | fluid 216.5283 | solid 46.9969
  Impulse FP iterations last/mean/max 18/16.54/19
Step  1600/2000   80.0% | t 80.000 | ETA 1m 30s | step 0.20s | KE 264.7021 | drift +0.75% | fluid 216.2627 | solid 48.4394
  Impulse FP iterations last/mean/max 16/16.54/19
Step  1700/2000   85.0% | t 85.000 | ETA 1m 8s | step 0.23s | KE 265.8079 | drift +1.18% | fluid 218.5272 | solid 47.2807
  Impulse FP iterations last/mean/max 17/16.55/19
Step  1800/2000   90.0% | t 90.000 | ETA 45s | step 0.21s | KE 263.5014 | drift +0.30% | fluid 214.8269 | solid 48.6745
  Impulse FP iterations last/mean/max 17/16.55/19
Step  1900/2000   95.0% | t 95.000 | ETA 22s | step 0.17s | KE 263.5611 | drift +0.32% | fluid 218.7849 | solid 44.7762
  Impulse FP iterations last/mean/max 16/16.55/19
Solver finished successfully - good job!
Results saved successfully.

================== Run summary ==================
  Bodies:            2
  Triangles / nodes: 256 / 516
  Timesteps:         2000  (dt = 0.05)
  Simulated time:    0 -> 100
  First-step setup:  0.356 s
  Mean time/step:    0.2210 s  (excl. first step)
  Total wall time:   7m 22s
  Impulse FP iters last/mean/max: 15 / 16.550 / 19
  Approx impulse solves/step:     16.551
  Impulse start cache hits/direct: 1999 / 1
  Impulse global drift P/H:       5.021528e-8 / 3.393888e-3
  Impulse per-body max drift P/H: 1.253051e-7 / 6.289689e-4
  CPU cores:         256 available, 8 Rayon worker thread(s)
  Started:           2026-06-22 19:52:03
  Finished:          2026-06-22 19:59:26
  Output file:       /work/e643/e643/shared/multi_ellip/studies/two_body_paper_sweeps/runs/spheroid_1_0p7_0p7/spheroid_1_0p7_0p7_rho0p1_E0p2_sep8_run01_impulse_noproj/multiple_body_complete.dat
================================================
