
================ Simulation setup ================
  Run label:         /work/e643/e643/shared/multi_ellip/studies/departing_sphericity_sweep/runs/triaxial/heterogeneous_sphere/triaxial_heterogeneous_sphere_eps0_rho1_E0p5_sep8_run07_impulse_noproj/
  Started:           2026-06-24 02:37:13
  Input file:        /work/e643/e643/shared/multi_ellip/studies/departing_sphericity_sweep/runs/triaxial/heterogeneous_sphere/triaxial_heterogeneous_sphere_eps0_rho1_E0p5_sep8_run07_impulse_noproj/input.txt
  Output file:       /work/e643/e643/shared/multi_ellip/studies/departing_sphericity_sweep/runs/triaxial/heterogeneous_sphere/triaxial_heterogeneous_sphere_eps0_rho1_E0p5_sep8_run07_impulse_noproj/multiple_body_complete.dat
  Bodies:            2
  Fluid density:     1
  Mesh:              ndiv 2 -> 256 triangles / 516 nodes
  Simulated time:    0 -> 100  (dt = 0.05, ~2000 steps)
  Output cadence:    every 1 step(s)
  Output rows:       ~2001
  Progress cadence:  every 100 step(s)
  CPU cores:         256 available, 8 Rayon worker thread(s)
  Strong coupling:   disabled
  Impulse scheme:    enabled
  Hamiltonian step:  disabled
  Hamiltonian midpt: disabled
  Variational step:  disabled
  Energy projection: disabled
  Projection particular metric: Euclidean
  Fluid KE gradient: disabled  (eps = 0.001, scale = 1, linear = 1, angular = 1)
  Fluid KE discrete gradient: disabled
  Impulse pair metric correction: disabled  (mode = pair discrete-gradient, cutoff = all pairs, inner/outer = 0/0, eps = 0.001, linear scale = 1, angular scale = 0)
  Impulse metric correction: disabled  (internal load constraint = disabled)
  Impulse variational defect probe: disabled
  Impulse quadratic pressure: disabled  (scale = 1)
  Added-mass stab:   disabled
  Exact BEM geometry: disabled
  Exact singular BEM: disabled
  Legacy singular SLP diagnostic: disabled
  Phi-dot blend:     0 (off)

  Solver guidance:
    - Strong coupling: use for stiff close-coupled runs; slower but more implicit.
    - Impulse scheme: use when impulse/momentum conservation or KE drift is the focus. Recommended.
    - Added-mass stab: use for higher mesh counts (ndiv > 3) to preserve stability - deprecated.
================================================
Solver starting - good luck!

Initial state:
  Body  1
    density:          1.000000
    shape axes ratio: (1.000000, 1.000000, 1.000000)
    initial KE ratio: 0.500000
    position:         (-4.000000, 0.000000, 0.000000)
    velocity:         (1.973050, -3.456352, 3.967801)
    angular velocity: (2.599933, 5.334179, 2.065261)
    orientation:      (w=0.684618, i=0.147232, j=-0.008896, k=0.713822)
  Body  2
    density:          1.000000
    shape axes ratio: (1.000000, 1.000000, 1.000000)
    initial KE ratio: 0.500000
    position:         (4.000000, 0.000000, 0.000000)
    velocity:         (1.973050, -3.456352, 3.967801)
    angular velocity: (-5.038910, 1.811573, 3.287250)
    orientation:      (w=-0.219746, i=-0.205863, j=0.308019, k=0.902473)

Preparing first step: implicit scheme, no bootstrap passes required.
First step may take longer than later steps.

First step completed in 0.201 s.

Step   100/2000    5.0% | t 5.000 | ETA 2m 28s | step 0.07s | KE 281.3312 | drift +3.82% | fluid 72.5314 | solid 208.7998
  Impulse FP iterations last/mean/max 5/5.77/6
Step   200/2000   10.0% | t 10.000 | ETA 2m 21s | step 0.09s | KE 293.0879 | drift +8.16% | fluid 72.5314 | solid 220.5565
  Impulse FP iterations last/mean/max 6/5.74/6
Step   300/2000   15.0% | t 15.000 | ETA 2m 12s | step 0.09s | KE 306.2414 | drift +13.02% | fluid 72.5314 | solid 233.7100
  Impulse FP iterations last/mean/max 6/5.66/6
Step   400/2000   20.0% | t 20.000 | ETA 2m 4s | step 0.08s | KE 320.7920 | drift +18.39% | fluid 72.5314 | solid 248.2606
  Impulse FP iterations last/mean/max 6/5.62/6
Step   500/2000   25.0% | t 25.000 | ETA 1m 56s | step 0.07s | KE 336.7393 | drift +24.27% | fluid 72.5315 | solid 264.2079
  Impulse FP iterations last/mean/max 5/5.58/6
Step   600/2000   30.0% | t 30.000 | ETA 1m 48s | step 0.08s | KE 354.0837 | drift +30.67% | fluid 72.5315 | solid 281.5522
  Impulse FP iterations last/mean/max 5/5.54/6
Step   700/2000   35.0% | t 35.000 | ETA 1m 39s | step 0.07s | KE 372.8250 | drift +37.59% | fluid 72.5315 | solid 300.2935
  Impulse FP iterations last/mean/max 5/5.51/6
Step   800/2000   40.0% | t 40.000 | ETA 1m 31s | step 0.07s | KE 392.9630 | drift +45.02% | fluid 72.5315 | solid 320.4315
  Impulse FP iterations last/mean/max 5/5.48/6
Step   900/2000   45.0% | t 45.000 | ETA 1m 24s | step 0.07s | KE 414.4980 | drift +52.97% | fluid 72.5315 | solid 341.9665
  Impulse FP iterations last/mean/max 5/5.46/6
Step  1000/2000   50.0% | t 50.000 | ETA 1m 16s | step 0.07s | KE 437.4296 | drift +61.43% | fluid 72.5315 | solid 364.8981
  Impulse FP iterations last/mean/max 5/5.43/6
Step  1100/2000   55.0% | t 55.000 | ETA 1m 8s | step 0.07s | KE 461.7581 | drift +70.41% | fluid 72.5315 | solid 389.2266
  Impulse FP iterations last/mean/max 5/5.42/6
Step  1200/2000   60.0% | t 60.000 | ETA 1m 0s | step 0.07s | KE 487.4834 | drift +79.90% | fluid 72.5315 | solid 414.9518
  Impulse FP iterations last/mean/max 5/5.40/6
Step  1300/2000   65.0% | t 65.000 | ETA 52s | step 0.07s | KE 514.6053 | drift +89.91% | fluid 72.5316 | solid 442.0738
  Impulse FP iterations last/mean/max 5/5.39/6
Step  1400/2000   70.0% | t 70.000 | ETA 45s | step 0.08s | KE 543.1240 | drift +100.44% | fluid 72.5316 | solid 470.5924
  Impulse FP iterations last/mean/max 6/5.37/6
Step  1500/2000   75.0% | t 75.000 | ETA 37s | step 0.07s | KE 573.0394 | drift +111.48% | fluid 72.5316 | solid 500.5078
  Impulse FP iterations last/mean/max 5/5.36/6
Step  1600/2000   80.0% | t 80.000 | ETA 30s | step 0.08s | KE 604.3514 | drift +123.03% | fluid 72.5316 | solid 531.8198
  Impulse FP iterations last/mean/max 5/5.35/6
Step  1700/2000   85.0% | t 85.000 | ETA 22s | step 0.07s | KE 637.0599 | drift +135.10% | fluid 72.5316 | solid 564.5283
  Impulse FP iterations last/mean/max 5/5.33/6
Step  1800/2000   90.0% | t 90.000 | ETA 14s | step 0.07s | KE 671.1650 | drift +147.69% | fluid 72.5317 | solid 598.6333
  Impulse FP iterations last/mean/max 5/5.32/6
Step  1900/2000   95.0% | t 95.000 | ETA 7s | step 0.08s | KE 706.6666 | drift +160.79% | fluid 72.5317 | solid 634.1349
  Impulse FP iterations last/mean/max 6/5.31/6
Solver finished successfully - good job!
Results saved successfully.

================== Run summary ==================
  Bodies:            2
  Triangles / nodes: 256 / 516
  Timesteps:         2000  (dt = 0.05)
  Simulated time:    0 -> 100
  First-step setup:  0.201 s
  Mean time/step:    0.0740 s  (excl. first step)
  Total wall time:   2m 28s
  Impulse FP iters last/mean/max: 6 / 5.302 / 6
  Approx impulse solves/step:     5.302
  Impulse start cache hits/direct: 1999 / 1
  Impulse global drift P/H:       1.185454e-9 / 1.944466e-2
  Impulse per-body max drift P/H: 1.880052e-9 / 3.065737e-3
  CPU cores:         256 available, 8 Rayon worker thread(s)
  Started:           2026-06-24 02:37:13
  Finished:          2026-06-24 02:39:41
  Output file:       /work/e643/e643/shared/multi_ellip/studies/departing_sphericity_sweep/runs/triaxial/heterogeneous_sphere/triaxial_heterogeneous_sphere_eps0_rho1_E0p5_sep8_run07_impulse_noproj/multiple_body_complete.dat
================================================
