
================ Simulation setup ================
  Run label:         /work/e643/e643/shared/multi_ellip/studies/departing_sphericity_sweep/runs/spheroid_oblate/homogeneous/spheroid_oblate_homogeneous_eps0p3_rho1_E0p5_sep8_run07_impulse_noproj/
  Started:           2026-06-24 02:30:09
  Input file:        /work/e643/e643/shared/multi_ellip/studies/departing_sphericity_sweep/runs/spheroid_oblate/homogeneous/spheroid_oblate_homogeneous_eps0p3_rho1_E0p5_sep8_run07_impulse_noproj/input.txt
  Output file:       /work/e643/e643/shared/multi_ellip/studies/departing_sphericity_sweep/runs/spheroid_oblate/homogeneous/spheroid_oblate_homogeneous_eps0p3_rho1_E0p5_sep8_run07_impulse_noproj/multiple_body_complete.dat
  Bodies:            2
  Fluid density:     1
  Mesh:              ndiv 2 -> 256 triangles / 516 nodes
  Simulated time:    0 -> 100  (dt = 0.05, ~2000 steps)
  Output cadence:    every 1 step(s)
  Output rows:       ~2001
  Progress cadence:  every 100 step(s)
  CPU cores:         256 available, 8 Rayon worker thread(s)
  Strong coupling:   disabled
  Impulse scheme:    enabled
  Hamiltonian step:  disabled
  Hamiltonian midpt: disabled
  Variational step:  disabled
  Energy projection: disabled
  Projection particular metric: Euclidean
  Fluid KE gradient: disabled  (eps = 0.001, scale = 1, linear = 1, angular = 1)
  Fluid KE discrete gradient: disabled
  Impulse pair metric correction: disabled  (mode = pair discrete-gradient, cutoff = all pairs, inner/outer = 0/0, eps = 0.001, linear scale = 1, angular scale = 0)
  Impulse metric correction: disabled  (internal load constraint = disabled)
  Impulse variational defect probe: disabled
  Impulse quadratic pressure: disabled  (scale = 1)
  Added-mass stab:   disabled
  Exact BEM geometry: disabled
  Exact singular BEM: disabled
  Legacy singular SLP diagnostic: disabled
  Phi-dot blend:     0 (off)

  Solver guidance:
    - Strong coupling: use for stiff close-coupled runs; slower but more implicit.
    - Impulse scheme: use when impulse/momentum conservation or KE drift is the focus. Recommended.
    - Added-mass stab: use for higher mesh counts (ndiv > 3) to preserve stability - deprecated.
================================================
Solver starting - good luck!

Initial state:
  Body  1
    density:          1.000000
    shape axes ratio: (1.000000, 1.000000, 0.455166)
    initial KE ratio: 0.500000
    position:         (-4.000000, 0.000000, 0.000000)
    velocity:         (-2.644264, -2.888420, -4.224769)
    angular velocity: (-1.792248, 5.870374, 1.343493)
    orientation:      (w=-0.593391, i=0.725440, j=0.321556, k=0.134998)
  Body  2
    density:          1.000000
    shape axes ratio: (1.000000, 1.000000, 0.455166)
    initial KE ratio: 0.500000
    position:         (4.000000, 0.000000, 0.000000)
    velocity:         (-2.611898, -2.853065, -4.173057)
    angular velocity: (-6.123110, -1.299006, 0.546369)
    orientation:      (w=0.223737, i=0.237806, j=0.890272, k=0.317498)

Preparing first step: implicit scheme, no bootstrap passes required.
First step may take longer than later steps.

First step completed in 0.333 s.

Step   100/2000    5.0% | t 5.000 | ETA 5m 48s | step 0.18s | KE 289.5107 | drift -0.45% | fluid 62.3864 | solid 227.1243
  Impulse FP iterations last/mean/max 13/13.21/15
Step   200/2000   10.0% | t 10.000 | ETA 5m 30s | step 0.20s | KE 285.8815 | drift -1.69% | fluid 84.7570 | solid 201.1244
  Impulse FP iterations last/mean/max 14/13.27/15
Step   300/2000   15.0% | t 15.000 | ETA 5m 11s | step 0.17s | KE 286.6575 | drift -1.43% | fluid 56.4599 | solid 230.1976
  Impulse FP iterations last/mean/max 12/13.26/15
Step   400/2000   20.0% | t 20.000 | ETA 4m 52s | step 0.19s | KE 285.0937 | drift -1.96% | fluid 75.5788 | solid 209.5148
  Impulse FP iterations last/mean/max 14/13.27/15
Step   500/2000   25.0% | t 25.000 | ETA 4m 34s | step 0.16s | KE 286.0272 | drift -1.64% | fluid 62.0599 | solid 223.9673
  Impulse FP iterations last/mean/max 12/13.27/15
Step   600/2000   30.0% | t 30.000 | ETA 4m 16s | step 0.20s | KE 285.3316 | drift -1.88% | fluid 75.2952 | solid 210.0364
  Impulse FP iterations last/mean/max 14/13.28/15
Step   700/2000   35.0% | t 35.000 | ETA 3m 57s | step 0.18s | KE 285.6564 | drift -1.77% | fluid 66.7550 | solid 218.9014
  Impulse FP iterations last/mean/max 13/13.27/15
Step   800/2000   40.0% | t 40.000 | ETA 3m 39s | step 0.16s | KE 285.7826 | drift -1.73% | fluid 57.6425 | solid 228.1401
  Impulse FP iterations last/mean/max 12/13.28/15
Step   900/2000   45.0% | t 45.000 | ETA 3m 21s | step 0.18s | KE 285.1268 | drift -1.95% | fluid 79.1689 | solid 205.9579
  Impulse FP iterations last/mean/max 13/13.28/15
Step  1000/2000   50.0% | t 50.000 | ETA 3m 2s | step 0.20s | KE 285.4749 | drift -1.83% | fluid 70.1536 | solid 215.3213
  Impulse FP iterations last/mean/max 14/13.28/15
Step  1100/2000   55.0% | t 55.000 | ETA 2m 44s | step 0.18s | KE 285.8958 | drift -1.69% | fluid 62.3800 | solid 223.5158
  Impulse FP iterations last/mean/max 13/13.28/15
Step  1200/2000   60.0% | t 60.000 | ETA 2m 25s | step 0.16s | KE 285.5254 | drift -1.82% | fluid 67.7308 | solid 217.7946
  Impulse FP iterations last/mean/max 13/13.28/15
Step  1300/2000   65.0% | t 65.000 | ETA 2m 6s | step 0.14s | KE 285.9623 | drift -1.67% | fluid 61.7751 | solid 224.1872
  Impulse FP iterations last/mean/max 13/13.28/15
Step  1400/2000   70.0% | t 70.000 | ETA 1m 47s | step 0.15s | KE 284.6393 | drift -2.12% | fluid 86.5775 | solid 198.0617
  Impulse FP iterations last/mean/max 14/13.28/15
Step  1500/2000   75.0% | t 75.000 | ETA 1m 28s | step 0.13s | KE 285.9721 | drift -1.66% | fluid 57.4706 | solid 228.5015
  Impulse FP iterations last/mean/max 13/13.28/15
Step  1600/2000   80.0% | t 80.000 | ETA 1m 9s | step 0.13s | KE 285.7411 | drift -1.74% | fluid 63.4437 | solid 222.2974
  Impulse FP iterations last/mean/max 13/13.28/15
Step  1700/2000   85.0% | t 85.000 | ETA 51s | step 0.13s | KE 285.6655 | drift -1.77% | fluid 72.2298 | solid 213.4358
  Impulse FP iterations last/mean/max 13/13.28/15
Step  1800/2000   90.0% | t 90.000 | ETA 33s | step 0.14s | KE 285.5396 | drift -1.81% | fluid 68.2052 | solid 217.3343
  Impulse FP iterations last/mean/max 14/13.28/15
Step  1900/2000   95.0% | t 95.000 | ETA 16s | step 0.13s | KE 285.0810 | drift -1.97% | fluid 74.5620 | solid 210.5190
  Impulse FP iterations last/mean/max 13/13.28/15
Solver finished successfully - good job!
Results saved successfully.

================== Run summary ==================
  Bodies:            2
  Triangles / nodes: 256 / 516
  Timesteps:         2000  (dt = 0.05)
  Simulated time:    0 -> 100
  First-step setup:  0.333 s
  Mean time/step:    0.1662 s  (excl. first step)
  Total wall time:   5m 32s
  Impulse FP iters last/mean/max: 13 / 13.280 / 15
  Approx impulse solves/step:     13.280
  Impulse start cache hits/direct: 1999 / 1
  Impulse global drift P/H:       4.409987e-9 / 2.853980e-2
  Impulse per-body max drift P/H: 8.687746e-9 / 7.263476e-3
  CPU cores:         256 available, 8 Rayon worker thread(s)
  Started:           2026-06-24 02:30:09
  Finished:          2026-06-24 02:35:42
  Output file:       /work/e643/e643/shared/multi_ellip/studies/departing_sphericity_sweep/runs/spheroid_oblate/homogeneous/spheroid_oblate_homogeneous_eps0p3_rho1_E0p5_sep8_run07_impulse_noproj/multiple_body_complete.dat
================================================
