
================ Simulation setup ================
  Run label:         /work/e643/e643/shared/multi_ellip/studies/departing_sphericity_sweep/runs/triaxial/homogeneous/triaxial_homogeneous_eps0_rho1_E0p5_sep8_run05_impulse_noproj/
  Started:           2026-06-24 02:23:18
  Input file:        /work/e643/e643/shared/multi_ellip/studies/departing_sphericity_sweep/runs/triaxial/homogeneous/triaxial_homogeneous_eps0_rho1_E0p5_sep8_run05_impulse_noproj/input.txt
  Output file:       /work/e643/e643/shared/multi_ellip/studies/departing_sphericity_sweep/runs/triaxial/homogeneous/triaxial_homogeneous_eps0_rho1_E0p5_sep8_run05_impulse_noproj/multiple_body_complete.dat
  Bodies:            2
  Fluid density:     1
  Mesh:              ndiv 2 -> 256 triangles / 516 nodes
  Simulated time:    0 -> 100  (dt = 0.05, ~2000 steps)
  Output cadence:    every 1 step(s)
  Output rows:       ~2001
  Progress cadence:  every 100 step(s)
  CPU cores:         256 available, 8 Rayon worker thread(s)
  Strong coupling:   disabled
  Impulse scheme:    enabled
  Hamiltonian step:  disabled
  Hamiltonian midpt: disabled
  Variational step:  disabled
  Energy projection: disabled
  Projection particular metric: Euclidean
  Fluid KE gradient: disabled  (eps = 0.001, scale = 1, linear = 1, angular = 1)
  Fluid KE discrete gradient: disabled
  Impulse pair metric correction: disabled  (mode = pair discrete-gradient, cutoff = all pairs, inner/outer = 0/0, eps = 0.001, linear scale = 1, angular scale = 0)
  Impulse metric correction: disabled  (internal load constraint = disabled)
  Impulse variational defect probe: disabled
  Impulse quadratic pressure: disabled  (scale = 1)
  Added-mass stab:   disabled
  Exact BEM geometry: disabled
  Exact singular BEM: disabled
  Legacy singular SLP diagnostic: disabled
  Phi-dot blend:     0 (off)

  Solver guidance:
    - Strong coupling: use for stiff close-coupled runs; slower but more implicit.
    - Impulse scheme: use when impulse/momentum conservation or KE drift is the focus. Recommended.
    - Added-mass stab: use for higher mesh counts (ndiv > 3) to preserve stability - deprecated.
================================================
Solver starting - good luck!

Initial state:
  Body  1
    density:          1.000000
    shape axes ratio: (1.000000, 1.000000, 1.000000)
    initial KE ratio: 0.500000
    position:         (-4.000000, 0.000000, 0.000000)
    velocity:         (-4.247189, -3.658462, -0.399720)
    angular velocity: (-0.719430, 5.560665, -2.835462)
    orientation:      (w=0.056135, i=0.719340, j=-0.545702, k=0.426155)
  Body  2
    density:          1.000000
    shape axes ratio: (1.000000, 1.000000, 1.000000)
    initial KE ratio: 0.500000
    position:         (4.000000, 0.000000, 0.000000)
    velocity:         (-4.247189, -3.658462, -0.399720)
    angular velocity: (-3.920351, -4.699142, -1.423846)
    orientation:      (w=-0.388380, i=-0.619193, j=-0.380163, k=-0.566777)

Preparing first step: implicit scheme, no bootstrap passes required.
First step may take longer than later steps.

First step completed in 0.245 s.

Step   100/2000    5.0% | t 5.000 | ETA 2m 39s | step 0.08s | KE 279.3208 | drift +3.19% | fluid 72.2359 | solid 207.0850
  Impulse FP iterations last/mean/max 6/6.00/6
Step   200/2000   10.0% | t 10.000 | ETA 2m 30s | step 0.09s | KE 291.1174 | drift +7.55% | fluid 72.2359 | solid 218.8815
  Impulse FP iterations last/mean/max 6/6.00/6
Step   300/2000   15.0% | t 15.000 | ETA 2m 22s | step 0.08s | KE 306.0653 | drift +13.07% | fluid 72.2359 | solid 233.8295
  Impulse FP iterations last/mean/max 6/6.00/6
Step   400/2000   20.0% | t 20.000 | ETA 2m 14s | step 0.08s | KE 324.1649 | drift +19.76% | fluid 72.2359 | solid 251.9290
  Impulse FP iterations last/mean/max 6/5.99/6
Step   500/2000   25.0% | t 25.000 | ETA 2m 5s | step 0.09s | KE 345.4162 | drift +27.61% | fluid 72.2359 | solid 273.1802
  Impulse FP iterations last/mean/max 6/5.98/6
Step   600/2000   30.0% | t 30.000 | ETA 1m 56s | step 0.08s | KE 369.8189 | drift +36.63% | fluid 72.2359 | solid 297.5830
  Impulse FP iterations last/mean/max 6/5.96/6
Step   700/2000   35.0% | t 35.000 | ETA 1m 47s | step 0.08s | KE 397.3729 | drift +46.81% | fluid 72.2359 | solid 325.1369
  Impulse FP iterations last/mean/max 6/5.94/6
Step   800/2000   40.0% | t 40.000 | ETA 1m 39s | step 0.07s | KE 428.0781 | drift +58.15% | fluid 72.2360 | solid 355.8422
  Impulse FP iterations last/mean/max 5/5.91/6
Step   900/2000   45.0% | t 45.000 | ETA 1m 30s | step 0.07s | KE 461.9346 | drift +70.66% | fluid 72.2360 | solid 389.6986
  Impulse FP iterations last/mean/max 5/5.87/6
Step  1000/2000   50.0% | t 50.000 | ETA 1m 21s | step 0.09s | KE 498.9419 | drift +84.33% | fluid 72.2360 | solid 426.7059
  Impulse FP iterations last/mean/max 6/5.85/6
Step  1100/2000   55.0% | t 55.000 | ETA 1m 13s | step 0.08s | KE 539.1001 | drift +99.17% | fluid 72.2360 | solid 466.8641
  Impulse FP iterations last/mean/max 6/5.82/6
Step  1200/2000   60.0% | t 60.000 | ETA 1m 4s | step 0.07s | KE 582.4089 | drift +115.17% | fluid 72.2361 | solid 510.1728
  Impulse FP iterations last/mean/max 5/5.79/6
Step  1300/2000   65.0% | t 65.000 | ETA 56s | step 0.07s | KE 628.8683 | drift +132.33% | fluid 72.2361 | solid 556.6322
  Impulse FP iterations last/mean/max 5/5.77/6
Step  1400/2000   70.0% | t 70.000 | ETA 48s | step 0.07s | KE 678.4779 | drift +150.66% | fluid 72.2361 | solid 606.2418
  Impulse FP iterations last/mean/max 6/5.75/6
Step  1500/2000   75.0% | t 75.000 | ETA 40s | step 0.06s | KE 731.2374 | drift +170.15% | fluid 72.2362 | solid 659.0012
  Impulse FP iterations last/mean/max 5/5.73/6
Step  1600/2000   80.0% | t 80.000 | ETA 31s | step 0.07s | KE 787.1468 | drift +190.81% | fluid 72.2362 | solid 714.9106
  Impulse FP iterations last/mean/max 6/5.71/6
Step  1700/2000   85.0% | t 85.000 | ETA 23s | step 0.07s | KE 846.2056 | drift +212.63% | fluid 72.2363 | solid 773.9693
  Impulse FP iterations last/mean/max 5/5.70/6
Step  1800/2000   90.0% | t 90.000 | ETA 15s | step 0.07s | KE 908.4137 | drift +235.61% | fluid 72.2363 | solid 836.1774
  Impulse FP iterations last/mean/max 6/5.69/6
Step  1900/2000   95.0% | t 95.000 | ETA 7s | step 0.08s | KE 973.7707 | drift +259.76% | fluid 72.2363 | solid 901.5344
  Impulse FP iterations last/mean/max 6/5.69/6
Solver finished successfully - good job!
Results saved successfully.

================== Run summary ==================
  Bodies:            2
  Triangles / nodes: 256 / 516
  Timesteps:         2000  (dt = 0.05)
  Simulated time:    0 -> 100
  First-step setup:  0.245 s
  Mean time/step:    0.0776 s  (excl. first step)
  Total wall time:   2m 35s
  Impulse FP iters last/mean/max: 6 / 5.684 / 6
  Approx impulse solves/step:     5.685
  Impulse start cache hits/direct: 1999 / 1
  Impulse global drift P/H:       2.079312e-9 / 8.461111e-2
  Impulse per-body max drift P/H: 3.066172e-9 / 8.646520e-3
  CPU cores:         256 available, 8 Rayon worker thread(s)
  Started:           2026-06-24 02:23:18
  Finished:          2026-06-24 02:25:55
  Output file:       /work/e643/e643/shared/multi_ellip/studies/departing_sphericity_sweep/runs/triaxial/homogeneous/triaxial_homogeneous_eps0_rho1_E0p5_sep8_run05_impulse_noproj/multiple_body_complete.dat
================================================
