
================ Simulation setup ================
  Run label:         /work/e643/e643/shared/multi_ellip/studies/two_body_paper_sweeps/runs/spheroid_1_0p7_0p7/spheroid_1_0p7_0p7_rho0p3_E0p2_sep5_run04_impulse_noproj/
  Started:           2026-06-24 01:39:27
  Input file:        /work/e643/e643/shared/multi_ellip/studies/two_body_paper_sweeps/runs/spheroid_1_0p7_0p7/spheroid_1_0p7_0p7_rho0p3_E0p2_sep5_run04_impulse_noproj/input.txt
  Output file:       /work/e643/e643/shared/multi_ellip/studies/two_body_paper_sweeps/runs/spheroid_1_0p7_0p7/spheroid_1_0p7_0p7_rho0p3_E0p2_sep5_run04_impulse_noproj/multiple_body_complete.dat
  Bodies:            2
  Fluid density:     1
  Mesh:              ndiv 2 -> 256 triangles / 516 nodes
  Simulated time:    0 -> 100  (dt = 0.05, ~2000 steps)
  Output cadence:    every 1 step(s)
  Output rows:       ~2001
  Progress cadence:  every 100 step(s)
  CPU cores:         256 available, 8 Rayon worker thread(s)
  Strong coupling:   disabled
  Impulse scheme:    enabled
  Hamiltonian step:  disabled
  Hamiltonian midpt: disabled
  Variational step:  disabled
  Energy projection: disabled
  Projection particular metric: Euclidean
  Fluid KE gradient: disabled  (eps = 0.001, scale = 1, linear = 1, angular = 1)
  Fluid KE discrete gradient: disabled
  Impulse pair metric correction: disabled  (mode = pair discrete-gradient, cutoff = all pairs, inner/outer = 0/0, eps = 0.001, linear scale = 1, angular scale = 0)
  Impulse metric correction: disabled  (internal load constraint = disabled)
  Impulse variational defect probe: disabled
  Impulse quadratic pressure: disabled  (scale = 1)
  Added-mass stab:   disabled
  Exact BEM geometry: disabled
  Exact singular BEM: disabled
  Legacy singular SLP diagnostic: disabled
  Phi-dot blend:     0 (off)

  Solver guidance:
    - Strong coupling: use for stiff close-coupled runs; slower but more implicit.
    - Impulse scheme: use when impulse/momentum conservation or KE drift is the focus. Recommended.
    - Added-mass stab: use for higher mesh counts (ndiv > 3) to preserve stability - deprecated.
================================================
Solver starting - good luck!

Initial state:
  Body  1
    density:          0.300000
    shape axes ratio: (1.000000, 0.700000, 0.700000)
    initial KE ratio: 0.200000
    position:         (-2.500000, 0.000000, 0.000000)
    velocity:         (9.054688, 2.608828, 0.858903)
    angular velocity: (-2.495623, -5.765656, -0.086588)
    orientation:      (w=0.515164, i=-0.518758, j=-0.493370, k=0.471256)
  Body  2
    density:          0.300000
    shape axes ratio: (1.000000, 0.700000, 0.700000)
    initial KE ratio: 0.200000
    position:         (2.500000, 0.000000, 0.000000)
    velocity:         (9.287919, 2.676027, 0.881027)
    angular velocity: (0.731284, -6.095314, 1.338201)
    orientation:      (w=-0.357230, i=0.053471, j=-0.914262, k=-0.183446)

Preparing first step: implicit scheme, no bootstrap passes required.
First step may take longer than later steps.

First step completed in 0.422 s.

Step   100/2000    5.0% | t 5.000 | ETA 6m 1s | step 0.17s | KE 342.3198 | drift -1.46% | fluid 211.0622 | solid 131.2576
  Impulse FP iterations last/mean/max 13/13.14/14
Step   200/2000   10.0% | t 10.000 | ETA 5m 41s | step 0.18s | KE 343.1585 | drift -1.22% | fluid 211.0650 | solid 132.0935
  Impulse FP iterations last/mean/max 13/13.18/14
Step   300/2000   15.0% | t 15.000 | ETA 5m 20s | step 0.18s | KE 342.9547 | drift -1.27% | fluid 210.9031 | solid 132.0516
  Impulse FP iterations last/mean/max 13/13.13/14
Step   400/2000   20.0% | t 20.000 | ETA 4m 59s | step 0.18s | KE 341.9904 | drift -1.55% | fluid 210.5230 | solid 131.4674
  Impulse FP iterations last/mean/max 13/13.11/14
Step   500/2000   25.0% | t 25.000 | ETA 4m 41s | step 0.19s | KE 341.1889 | drift -1.78% | fluid 210.2822 | solid 130.9067
  Impulse FP iterations last/mean/max 13/13.12/14
Step   600/2000   30.0% | t 30.000 | ETA 4m 22s | step 0.21s | KE 341.5638 | drift -1.68% | fluid 210.3441 | solid 131.2197
  Impulse FP iterations last/mean/max 14/13.11/14
Step   700/2000   35.0% | t 35.000 | ETA 4m 3s | step 0.19s | KE 342.7034 | drift -1.35% | fluid 210.7115 | solid 131.9919
  Impulse FP iterations last/mean/max 13/13.11/14
Step   800/2000   40.0% | t 40.000 | ETA 3m 44s | step 0.19s | KE 343.1288 | drift -1.22% | fluid 211.0181 | solid 132.1107
  Impulse FP iterations last/mean/max 13/13.11/14
Step   900/2000   45.0% | t 45.000 | ETA 3m 26s | step 0.18s | KE 342.8820 | drift -1.30% | fluid 211.0809 | solid 131.8011
  Impulse FP iterations last/mean/max 13/13.10/14
Step  1000/2000   50.0% | t 50.000 | ETA 3m 7s | step 0.17s | KE 342.6564 | drift -1.36% | fluid 211.1002 | solid 131.5561
  Impulse FP iterations last/mean/max 13/13.10/14
Step  1100/2000   55.0% | t 55.000 | ETA 2m 48s | step 0.18s | KE 342.4561 | drift -1.42% | fluid 210.8027 | solid 131.6534
  Impulse FP iterations last/mean/max 13/13.10/14
Step  1200/2000   60.0% | t 60.000 | ETA 2m 29s | step 0.19s | KE 342.0303 | drift -1.54% | fluid 210.4149 | solid 131.6154
  Impulse FP iterations last/mean/max 13/13.10/14
Step  1300/2000   65.0% | t 65.000 | ETA 2m 11s | step 0.18s | KE 341.6783 | drift -1.64% | fluid 210.2168 | solid 131.4614
  Impulse FP iterations last/mean/max 13/13.10/14
Step  1400/2000   70.0% | t 70.000 | ETA 1m 51s | step 0.16s | KE 341.8928 | drift -1.58% | fluid 210.4214 | solid 131.4714
  Impulse FP iterations last/mean/max 13/13.10/14
Step  1500/2000   75.0% | t 75.000 | ETA 1m 31s | step 0.12s | KE 342.4381 | drift -1.42% | fluid 210.8920 | solid 131.5461
  Impulse FP iterations last/mean/max 13/13.10/14
Step  1600/2000   80.0% | t 80.000 | ETA 1m 11s | step 0.12s | KE 342.7505 | drift -1.33% | fluid 211.0697 | solid 131.6808
  Impulse FP iterations last/mean/max 13/13.10/14
Step  1700/2000   85.0% | t 85.000 | ETA 52s | step 0.12s | KE 343.0055 | drift -1.26% | fluid 211.0856 | solid 131.9200
  Impulse FP iterations last/mean/max 13/13.10/14
Step  1800/2000   90.0% | t 90.000 | ETA 34s | step 0.11s | KE 343.2056 | drift -1.20% | fluid 210.9944 | solid 132.2113
  Impulse FP iterations last/mean/max 12/13.09/14
Step  1900/2000   95.0% | t 95.000 | ETA 16s | step 0.11s | KE 342.4467 | drift -1.42% | fluid 210.6817 | solid 131.7650
  Impulse FP iterations last/mean/max 12/13.09/14
Solver finished successfully - good job!
Results saved successfully.

================== Run summary ==================
  Bodies:            2
  Triangles / nodes: 256 / 516
  Timesteps:         2000  (dt = 0.05)
  Simulated time:    0 -> 100
  First-step setup:  0.422 s
  Mean time/step:    0.1670 s  (excl. first step)
  Total wall time:   5m 34s
  Impulse FP iters last/mean/max: 13 / 13.095 / 14
  Approx impulse solves/step:     13.096
  Impulse start cache hits/direct: 1999 / 1
  Impulse global drift P/H:       2.159615e-8 / 7.382266e-3
  Impulse per-body max drift P/H: 5.393153e-8 / 8.728102e-3
  CPU cores:         256 available, 8 Rayon worker thread(s)
  Started:           2026-06-24 01:39:27
  Finished:          2026-06-24 01:45:01
  Output file:       /work/e643/e643/shared/multi_ellip/studies/two_body_paper_sweeps/runs/spheroid_1_0p7_0p7/spheroid_1_0p7_0p7_rho0p3_E0p2_sep5_run04_impulse_noproj/multiple_body_complete.dat
================================================
