
================ Simulation setup ================
  Run label:         /work/e643/e643/shared/multi_ellip/studies/two_body_paper_sweeps/runs/ellipsoid_1_0p8_0p6/ellipsoid_1_0p8_0p6_rho4_E11_sep11_run05_impulse_noproj/
  Started:           2026-06-24 01:33:25
  Input file:        /work/e643/e643/shared/multi_ellip/studies/two_body_paper_sweeps/runs/ellipsoid_1_0p8_0p6/ellipsoid_1_0p8_0p6_rho4_E11_sep11_run05_impulse_noproj/input.txt
  Output file:       /work/e643/e643/shared/multi_ellip/studies/two_body_paper_sweeps/runs/ellipsoid_1_0p8_0p6/ellipsoid_1_0p8_0p6_rho4_E11_sep11_run05_impulse_noproj/multiple_body_complete.dat
  Bodies:            2
  Fluid density:     1
  Mesh:              ndiv 2 -> 256 triangles / 516 nodes
  Simulated time:    0 -> 100  (dt = 0.05, ~2000 steps)
  Output cadence:    every 1 step(s)
  Output rows:       ~2001
  Progress cadence:  every 100 step(s)
  CPU cores:         256 available, 8 Rayon worker thread(s)
  Strong coupling:   disabled
  Impulse scheme:    enabled
  Hamiltonian step:  disabled
  Hamiltonian midpt: disabled
  Variational step:  disabled
  Energy projection: disabled
  Projection particular metric: Euclidean
  Fluid KE gradient: disabled  (eps = 0.001, scale = 1, linear = 1, angular = 1)
  Fluid KE discrete gradient: disabled
  Impulse pair metric correction: disabled  (mode = pair discrete-gradient, cutoff = all pairs, inner/outer = 0/0, eps = 0.001, linear scale = 1, angular scale = 0)
  Impulse metric correction: disabled  (internal load constraint = disabled)
  Impulse variational defect probe: disabled
  Impulse quadratic pressure: disabled  (scale = 1)
  Added-mass stab:   disabled
  Exact BEM geometry: disabled
  Exact singular BEM: disabled
  Legacy singular SLP diagnostic: disabled
  Phi-dot blend:     0 (off)

  Solver guidance:
    - Strong coupling: use for stiff close-coupled runs; slower but more implicit.
    - Impulse scheme: use when impulse/momentum conservation or KE drift is the focus. Recommended.
    - Added-mass stab: use for higher mesh counts (ndiv > 3) to preserve stability - deprecated.
================================================
Solver starting - good luck!

Initial state:
  Body  1
    density:          4.000000
    shape axes ratio: (1.000000, 0.800000, 0.600000)
    initial KE ratio: 11.000000
    position:         (-5.500000, 0.000000, 0.000000)
    velocity:         (0.436217, -1.235597, -0.213761)
    angular velocity: (2.059326, 3.045559, -5.095308)
    orientation:      (w=-0.418630, i=0.057214, j=-0.903981, k=-0.065520)
  Body  2
    density:          4.000000
    shape axes ratio: (1.000000, 0.800000, 0.600000)
    initial KE ratio: 11.000000
    position:         (5.500000, 0.000000, 0.000000)
    velocity:         (0.390727, -1.106745, -0.191470)
    angular velocity: (-4.109313, -4.725840, 0.508328)
    orientation:      (w=-0.322462, i=-0.305878, j=0.847415, k=-0.290422)

Preparing first step: implicit scheme, no bootstrap passes required.
First step may take longer than later steps.

First step completed in 0.233 s.

Step   100/2000    5.0% | t 5.000 | ETA 3m 25s | step 0.12s | KE 339.3659 | drift -0.03% | fluid 11.2904 | solid 328.0755
  Impulse FP iterations last/mean/max 8/8.50/9
Step   200/2000   10.0% | t 10.000 | ETA 3m 25s | step 0.11s | KE 339.2679 | drift -0.05% | fluid 12.0931 | solid 327.1748
  Impulse FP iterations last/mean/max 8/8.45/9
Step   300/2000   15.0% | t 15.000 | ETA 3m 17s | step 0.12s | KE 339.1720 | drift -0.08% | fluid 9.3871 | solid 329.7849
  Impulse FP iterations last/mean/max 8/8.43/9
Step   400/2000   20.0% | t 20.000 | ETA 3m 8s | step 0.13s | KE 339.1347 | drift -0.09% | fluid 9.6539 | solid 329.4809
  Impulse FP iterations last/mean/max 9/8.44/9
Step   500/2000   25.0% | t 25.000 | ETA 2m 55s | step 0.12s | KE 339.0936 | drift -0.11% | fluid 11.2408 | solid 327.8529
  Impulse FP iterations last/mean/max 8/8.44/9
Step   600/2000   30.0% | t 30.000 | ETA 2m 43s | step 0.11s | KE 339.0795 | drift -0.11% | fluid 12.4778 | solid 326.6017
  Impulse FP iterations last/mean/max 8/8.44/9
Step   700/2000   35.0% | t 35.000 | ETA 2m 31s | step 0.11s | KE 339.1326 | drift -0.09% | fluid 6.7011 | solid 332.4316
  Impulse FP iterations last/mean/max 8/8.43/9
Step   800/2000   40.0% | t 40.000 | ETA 2m 20s | step 0.12s | KE 339.1517 | drift -0.09% | fluid 13.7044 | solid 325.4474
  Impulse FP iterations last/mean/max 9/8.45/9
Step   900/2000   45.0% | t 45.000 | ETA 2m 9s | step 0.13s | KE 339.3386 | drift -0.03% | fluid 10.7510 | solid 328.5876
  Impulse FP iterations last/mean/max 9/8.45/9
Step  1000/2000   50.0% | t 50.000 | ETA 1m 58s | step 0.12s | KE 339.4893 | drift +0.01% | fluid 11.5061 | solid 327.9832
  Impulse FP iterations last/mean/max 8/8.45/9
Step  1100/2000   55.0% | t 55.000 | ETA 1m 46s | step 0.12s | KE 339.6861 | drift +0.07% | fluid 8.2500 | solid 331.4361
  Impulse FP iterations last/mean/max 8/8.46/9
Step  1200/2000   60.0% | t 60.000 | ETA 1m 35s | step 0.12s | KE 339.8826 | drift +0.13% | fluid 12.4407 | solid 327.4419
  Impulse FP iterations last/mean/max 9/8.46/9
Step  1300/2000   65.0% | t 65.000 | ETA 1m 23s | step 0.12s | KE 340.1046 | drift +0.19% | fluid 11.6683 | solid 328.4363
  Impulse FP iterations last/mean/max 8/8.45/9
Step  1400/2000   70.0% | t 70.000 | ETA 1m 11s | step 0.12s | KE 340.3056 | drift +0.25% | fluid 7.4507 | solid 332.8549
  Impulse FP iterations last/mean/max 9/8.46/9
Step  1500/2000   75.0% | t 75.000 | ETA 59s | step 0.12s | KE 340.5067 | drift +0.31% | fluid 11.2466 | solid 329.2601
  Impulse FP iterations last/mean/max 8/8.46/9
Step  1600/2000   80.0% | t 80.000 | ETA 47s | step 0.12s | KE 340.6230 | drift +0.35% | fluid 11.6558 | solid 328.9672
  Impulse FP iterations last/mean/max 8/8.46/9
Step  1700/2000   85.0% | t 85.000 | ETA 35s | step 0.12s | KE 340.7553 | drift +0.38% | fluid 11.6918 | solid 329.0635
  Impulse FP iterations last/mean/max 9/8.46/9
Step  1800/2000   90.0% | t 90.000 | ETA 23s | step 0.13s | KE 340.8788 | drift +0.42% | fluid 7.9167 | solid 332.9621
  Impulse FP iterations last/mean/max 9/8.46/9
Step  1900/2000   95.0% | t 95.000 | ETA 11s | step 0.12s | KE 340.9422 | drift +0.44% | fluid 13.0851 | solid 327.8571
  Impulse FP iterations last/mean/max 8/8.46/9
Solver finished successfully - good job!
Results saved successfully.

================== Run summary ==================
  Bodies:            2
  Triangles / nodes: 256 / 516
  Timesteps:         2000  (dt = 0.05)
  Simulated time:    0 -> 100
  First-step setup:  0.233 s
  Mean time/step:    0.1199 s  (excl. first step)
  Total wall time:   3m 59s
  Impulse FP iters last/mean/max: 8 / 8.456 / 9
  Approx impulse solves/step:     8.457
  Impulse start cache hits/direct: 1999 / 1
  Impulse global drift P/H:       1.766144e-8 / 1.138556e-2
  Impulse per-body max drift P/H: 3.524222e-8 / 4.442558e-3
  CPU cores:         256 available, 8 Rayon worker thread(s)
  Started:           2026-06-24 01:33:25
  Finished:          2026-06-24 01:37:25
  Output file:       /work/e643/e643/shared/multi_ellip/studies/two_body_paper_sweeps/runs/ellipsoid_1_0p8_0p6/ellipsoid_1_0p8_0p6_rho4_E11_sep11_run05_impulse_noproj/multiple_body_complete.dat
================================================
