
================ Simulation setup ================
  Run label:         /work/e643/e643/shared/multi_ellip/studies/two_body_paper_sweeps/runs/ellipsoid_1_0p8_0p6/ellipsoid_1_0p8_0p6_rho1_E0p2_sep5_run01_impulse_noproj/
  Started:           2026-06-22 19:34:41
  Input file:        /work/e643/e643/shared/multi_ellip/studies/two_body_paper_sweeps/runs/ellipsoid_1_0p8_0p6/ellipsoid_1_0p8_0p6_rho1_E0p2_sep5_run01_impulse_noproj/input.txt
  Output file:       /work/e643/e643/shared/multi_ellip/studies/two_body_paper_sweeps/runs/ellipsoid_1_0p8_0p6/ellipsoid_1_0p8_0p6_rho1_E0p2_sep5_run01_impulse_noproj/multiple_body_complete.dat
  Bodies:            2
  Fluid density:     1
  Mesh:              ndiv 2 -> 256 triangles / 516 nodes
  Simulated time:    0 -> 100  (dt = 0.05, ~2000 steps)
  Output cadence:    every 1 step(s)
  Output rows:       ~2001
  Progress cadence:  every 100 step(s)
  CPU cores:         256 available, 8 Rayon worker thread(s)
  Strong coupling:   disabled
  Impulse scheme:    enabled
  Hamiltonian step:  disabled
  Hamiltonian midpt: disabled
  Variational step:  disabled
  Energy projection: disabled
  Projection particular metric: Euclidean
  Fluid KE gradient: disabled  (eps = 0.001, scale = 1, linear = 1, angular = 1)
  Fluid KE discrete gradient: disabled
  Impulse pair metric correction: disabled  (mode = pair discrete-gradient, cutoff = all pairs, inner/outer = 0/0, eps = 0.001, linear scale = 1, angular scale = 0)
  Impulse metric correction: disabled  (internal load constraint = disabled)
  Impulse variational defect probe: disabled
  Impulse quadratic pressure: disabled  (scale = 1)
  Added-mass stab:   disabled
  Exact BEM geometry: disabled
  Exact singular BEM: disabled
  Legacy singular SLP diagnostic: disabled
  Phi-dot blend:     0 (off)

  Solver guidance:
    - Strong coupling: use for stiff close-coupled runs; slower but more implicit.
    - Impulse scheme: use when impulse/momentum conservation or KE drift is the focus. Recommended.
    - Added-mass stab: use for higher mesh counts (ndiv > 3) to preserve stability - deprecated.
================================================
Solver starting - good luck!

Initial state:
  Body  1
    density:          1.000000
    shape axes ratio: (1.000000, 0.800000, 0.600000)
    initial KE ratio: 0.200000
    position:         (-2.500000, 0.000000, 0.000000)
    velocity:         (1.561302, -7.616881, 5.351710)
    angular velocity: (3.529153, 2.773457, -4.396752)
    orientation:      (w=0.447214, i=0.894427, j=0.000000, k=0.000000)
  Body  2
    density:          1.000000
    shape axes ratio: (1.000000, 0.800000, 0.600000)
    initial KE ratio: 0.200000
    position:         (2.500000, 0.000000, 0.000000)
    velocity:         (1.498303, -7.309538, 5.135767)
    angular velocity: (-4.240724, -3.237192, 3.318926)
    orientation:      (w=0.707107, i=0.000000, j=0.707107, k=0.000000)

Preparing first step: implicit scheme, no bootstrap passes required.
First step may take longer than later steps.

First step completed in 0.241 s.

Step   100/2000    5.0% | t 5.000 | ETA 4m 54s | step 0.16s | KE 629.0791 | drift +1.40% | fluid 187.6671 | solid 441.4120
  Impulse FP iterations last/mean/max 11/11.42/12
Step   200/2000   10.0% | t 10.000 | ETA 4m 43s | step 0.17s | KE 622.1192 | drift +0.28% | fluid 175.3459 | solid 446.7733
  Impulse FP iterations last/mean/max 12/11.60/13
Step   300/2000   15.0% | t 15.000 | ETA 4m 29s | step 0.17s | KE 620.5355 | drift +0.02% | fluid 207.4144 | solid 413.1211
  Impulse FP iterations last/mean/max 12/11.61/13
Step   400/2000   20.0% | t 20.000 | ETA 4m 13s | step 0.14s | KE 626.5937 | drift +1.00% | fluid 189.9626 | solid 436.6311
  Impulse FP iterations last/mean/max 11/11.61/13
Step   500/2000   25.0% | t 25.000 | ETA 3m 58s | step 0.17s | KE 621.5852 | drift +0.19% | fluid 219.0954 | solid 402.4898
  Impulse FP iterations last/mean/max 12/11.62/13
Step   600/2000   30.0% | t 30.000 | ETA 3m 42s | step 0.15s | KE 625.3906 | drift +0.80% | fluid 190.3016 | solid 435.0890
  Impulse FP iterations last/mean/max 11/11.62/13
Step   700/2000   35.0% | t 35.000 | ETA 3m 26s | step 0.14s | KE 625.7233 | drift +0.86% | fluid 183.1230 | solid 442.6003
  Impulse FP iterations last/mean/max 11/11.63/13
Step   800/2000   40.0% | t 40.000 | ETA 3m 10s | step 0.15s | KE 625.0793 | drift +0.75% | fluid 184.7387 | solid 440.3406
  Impulse FP iterations last/mean/max 11/11.64/13
Step   900/2000   45.0% | t 45.000 | ETA 2m 55s | step 0.16s | KE 622.9578 | drift +0.41% | fluid 210.8003 | solid 412.1575
  Impulse FP iterations last/mean/max 12/11.65/13
Step  1000/2000   50.0% | t 50.000 | ETA 2m 39s | step 0.18s | KE 625.8535 | drift +0.88% | fluid 188.0002 | solid 437.8532
  Impulse FP iterations last/mean/max 12/11.65/13
Step  1100/2000   55.0% | t 55.000 | ETA 2m 23s | step 0.16s | KE 623.5034 | drift +0.50% | fluid 210.3645 | solid 413.1389
  Impulse FP iterations last/mean/max 12/11.66/13
Step  1200/2000   60.0% | t 60.000 | ETA 2m 7s | step 0.16s | KE 625.1443 | drift +0.76% | fluid 193.6135 | solid 431.5308
  Impulse FP iterations last/mean/max 12/11.66/13
Step  1300/2000   65.0% | t 65.000 | ETA 1m 51s | step 0.16s | KE 624.2275 | drift +0.62% | fluid 201.2538 | solid 422.9737
  Impulse FP iterations last/mean/max 12/11.65/13
Step  1400/2000   70.0% | t 70.000 | ETA 1m 35s | step 0.17s | KE 622.9179 | drift +0.41% | fluid 204.0715 | solid 418.8463
  Impulse FP iterations last/mean/max 12/11.65/13
Step  1500/2000   75.0% | t 75.000 | ETA 1m 19s | step 0.16s | KE 622.8821 | drift +0.40% | fluid 197.6448 | solid 425.2373
  Impulse FP iterations last/mean/max 12/11.65/13
Step  1600/2000   80.0% | t 80.000 | ETA 1m 3s | step 0.15s | KE 627.2440 | drift +1.10% | fluid 192.1454 | solid 435.0986
  Impulse FP iterations last/mean/max 11/11.65/13
Step  1700/2000   85.0% | t 85.000 | ETA 47s | step 0.17s | KE 625.1853 | drift +0.77% | fluid 194.8880 | solid 430.2973
  Impulse FP iterations last/mean/max 12/11.66/13
Step  1800/2000   90.0% | t 90.000 | ETA 31s | step 0.13s | KE 626.4259 | drift +0.97% | fluid 176.3879 | solid 450.0380
  Impulse FP iterations last/mean/max 10/11.65/13
Step  1900/2000   95.0% | t 95.000 | ETA 15s | step 0.12s | KE 624.3350 | drift +0.63% | fluid 196.7964 | solid 427.5385
  Impulse FP iterations last/mean/max 12/11.66/13
Solver finished successfully - good job!
Results saved successfully.

================== Run summary ==================
  Bodies:            2
  Triangles / nodes: 256 / 516
  Timesteps:         2000  (dt = 0.05)
  Simulated time:    0 -> 100
  First-step setup:  0.241 s
  Mean time/step:    0.1556 s  (excl. first step)
  Total wall time:   5m 11s
  Impulse FP iters last/mean/max: 12 / 11.655 / 13
  Approx impulse solves/step:     11.655
  Impulse start cache hits/direct: 1999 / 1
  Impulse global drift P/H:       6.273779e-9 / 1.738255e-1
  Impulse per-body max drift P/H: 7.661750e-9 / 1.248829e-2
  CPU cores:         256 available, 8 Rayon worker thread(s)
  Started:           2026-06-22 19:34:41
  Finished:          2026-06-22 19:39:53
  Output file:       /work/e643/e643/shared/multi_ellip/studies/two_body_paper_sweeps/runs/ellipsoid_1_0p8_0p6/ellipsoid_1_0p8_0p6_rho1_E0p2_sep5_run01_impulse_noproj/multiple_body_complete.dat
================================================
