
================ Simulation setup ================
  Run label:         /work/e643/e643/shared/multi_ellip/studies/two_body_paper_sweeps/runs/spheroid_1_0p7_0p7/spheroid_1_0p7_0p7_rho0p03_E4_sep8_run03_impulse_noproj/
  Started:           2026-06-24 02:24:13
  Input file:        /work/e643/e643/shared/multi_ellip/studies/two_body_paper_sweeps/runs/spheroid_1_0p7_0p7/spheroid_1_0p7_0p7_rho0p03_E4_sep8_run03_impulse_noproj/input.txt
  Output file:       /work/e643/e643/shared/multi_ellip/studies/two_body_paper_sweeps/runs/spheroid_1_0p7_0p7/spheroid_1_0p7_0p7_rho0p03_E4_sep8_run03_impulse_noproj/multiple_body_complete.dat
  Bodies:            2
  Fluid density:     1
  Mesh:              ndiv 2 -> 256 triangles / 516 nodes
  Simulated time:    0 -> 100  (dt = 0.05, ~2000 steps)
  Output cadence:    every 1 step(s)
  Output rows:       ~2001
  Progress cadence:  every 100 step(s)
  CPU cores:         256 available, 8 Rayon worker thread(s)
  Strong coupling:   disabled
  Impulse scheme:    enabled
  Hamiltonian step:  disabled
  Hamiltonian midpt: disabled
  Variational step:  disabled
  Energy projection: disabled
  Projection particular metric: Euclidean
  Fluid KE gradient: disabled  (eps = 0.001, scale = 1, linear = 1, angular = 1)
  Fluid KE discrete gradient: disabled
  Impulse pair metric correction: disabled  (mode = pair discrete-gradient, cutoff = all pairs, inner/outer = 0/0, eps = 0.001, linear scale = 1, angular scale = 0)
  Impulse metric correction: disabled  (internal load constraint = disabled)
  Impulse variational defect probe: disabled
  Impulse quadratic pressure: disabled  (scale = 1)
  Added-mass stab:   disabled
  Exact BEM geometry: disabled
  Exact singular BEM: disabled
  Legacy singular SLP diagnostic: disabled
  Phi-dot blend:     0 (off)

  Solver guidance:
    - Strong coupling: use for stiff close-coupled runs; slower but more implicit.
    - Impulse scheme: use when impulse/momentum conservation or KE drift is the focus. Recommended.
    - Added-mass stab: use for higher mesh counts (ndiv > 3) to preserve stability - deprecated.
================================================
Solver starting - good luck!

Initial state:
  Body  1
    density:          0.030000
    shape axes ratio: (1.000000, 0.700000, 0.700000)
    initial KE ratio: 4.000000
    position:         (-4.000000, 0.000000, 0.000000)
    velocity:         (1.857429, 0.180091, 0.835911)
    angular velocity: (-3.664216, 3.983651, -3.190996)
    orientation:      (w=0.828260, i=0.081727, j=0.256995, k=-0.491182)
  Body  2
    density:          0.030000
    shape axes ratio: (1.000000, 0.700000, 0.700000)
    initial KE ratio: 4.000000
    position:         (4.000000, 0.000000, 0.000000)
    velocity:         (1.958689, 0.189909, 0.881482)
    angular velocity: (1.418378, -5.420915, -2.842587)
    orientation:      (w=-0.908114, i=0.122356, j=0.312949, k=-0.249844)

Preparing first step: implicit scheme, no bootstrap passes required.
First step may take longer than later steps.

First step completed in 0.458 s.

Step   100/2000    5.0% | t 5.000 | ETA 8m 38s | step 0.22s | KE 17.8179 | drift +1.35% | fluid 15.0189 | solid 2.7990
  Impulse FP iterations last/mean/max 17/18.97/21
Step   200/2000   10.0% | t 10.000 | ETA 8m 5s | step 0.30s | KE 17.5897 | drift +0.05% | fluid 14.7698 | solid 2.8199
  Impulse FP iterations last/mean/max 21/18.95/21
Step   300/2000   15.0% | t 15.000 | ETA 7m 35s | step 0.24s | KE 17.5239 | drift -0.32% | fluid 14.7606 | solid 2.7633
  Impulse FP iterations last/mean/max 18/18.99/22
Step   400/2000   20.0% | t 20.000 | ETA 7m 7s | step 0.29s | KE 17.4950 | drift -0.48% | fluid 14.8210 | solid 2.6740
  Impulse FP iterations last/mean/max 20/19.02/22
Step   500/2000   25.0% | t 25.000 | ETA 6m 39s | step 0.27s | KE 17.4771 | drift -0.59% | fluid 14.8627 | solid 2.6144
  Impulse FP iterations last/mean/max 19/19.02/22
Step   600/2000   30.0% | t 30.000 | ETA 6m 11s | step 0.25s | KE 17.4664 | drift -0.65% | fluid 14.8615 | solid 2.6049
  Impulse FP iterations last/mean/max 19/19.03/22
Step   700/2000   35.0% | t 35.000 | ETA 5m 44s | step 0.28s | KE 17.4577 | drift -0.70% | fluid 14.7989 | solid 2.6588
  Impulse FP iterations last/mean/max 20/19.04/22
Step   800/2000   40.0% | t 40.000 | ETA 5m 17s | step 0.30s | KE 17.4827 | drift -0.55% | fluid 14.8076 | solid 2.6750
  Impulse FP iterations last/mean/max 20/19.04/22
Step   900/2000   45.0% | t 45.000 | ETA 4m 50s | step 0.29s | KE 17.5183 | drift -0.35% | fluid 14.8282 | solid 2.6901
  Impulse FP iterations last/mean/max 20/19.05/22
Step  1000/2000   50.0% | t 50.000 | ETA 4m 23s | step 0.25s | KE 17.5301 | drift -0.28% | fluid 14.7694 | solid 2.7608
  Impulse FP iterations last/mean/max 18/19.05/22
Step  1100/2000   55.0% | t 55.000 | ETA 3m 57s | step 0.22s | KE 17.5252 | drift -0.31% | fluid 14.7070 | solid 2.8182
  Impulse FP iterations last/mean/max 18/19.05/22
Step  1200/2000   60.0% | t 60.000 | ETA 3m 30s | step 0.24s | KE 17.5239 | drift -0.32% | fluid 14.7514 | solid 2.7724
  Impulse FP iterations last/mean/max 18/19.05/22
Step  1300/2000   65.0% | t 65.000 | ETA 3m 3s | step 0.25s | KE 17.5288 | drift -0.29% | fluid 14.8656 | solid 2.6631
  Impulse FP iterations last/mean/max 19/19.05/22
Step  1400/2000   70.0% | t 70.000 | ETA 2m 36s | step 0.23s | KE 17.5048 | drift -0.43% | fluid 14.8726 | solid 2.6323
  Impulse FP iterations last/mean/max 19/19.05/22
Step  1500/2000   75.0% | t 75.000 | ETA 2m 8s | step 0.22s | KE 17.4766 | drift -0.59% | fluid 14.8199 | solid 2.6566
  Impulse FP iterations last/mean/max 19/19.05/22
Step  1600/2000   80.0% | t 80.000 | ETA 1m 42s | step 0.25s | KE 17.4593 | drift -0.69% | fluid 14.7712 | solid 2.6881
  Impulse FP iterations last/mean/max 19/19.05/22
Step  1700/2000   85.0% | t 85.000 | ETA 1m 16s | step 0.24s | KE 17.4775 | drift -0.58% | fluid 14.8172 | solid 2.6603
  Impulse FP iterations last/mean/max 18/19.05/22
Step  1800/2000   90.0% | t 90.000 | ETA 51s | step 0.28s | KE 17.5171 | drift -0.36% | fluid 14.8935 | solid 2.6237
  Impulse FP iterations last/mean/max 20/19.06/22
Step  1900/2000   95.0% | t 95.000 | ETA 25s | step 0.24s | KE 17.5237 | drift -0.32% | fluid 14.8132 | solid 2.7105
  Impulse FP iterations last/mean/max 19/19.06/22
Solver finished successfully - good job!
Results saved successfully.

================== Run summary ==================
  Bodies:            2
  Triangles / nodes: 256 / 516
  Timesteps:         2000  (dt = 0.05)
  Simulated time:    0 -> 100
  First-step setup:  0.458 s
  Mean time/step:    0.2554 s  (excl. first step)
  Total wall time:   8m 31s
  Impulse FP iters last/mean/max: 19 / 19.056 / 22
  Approx impulse solves/step:     19.057
  Impulse start cache hits/direct: 1999 / 1
  Impulse global drift P/H:       8.117786e-8 / 1.544938e-3
  Impulse per-body max drift P/H: 9.691242e-8 / 1.064215e-3
  CPU cores:         256 available, 8 Rayon worker thread(s)
  Started:           2026-06-24 02:24:13
  Finished:          2026-06-24 02:32:44
  Output file:       /work/e643/e643/shared/multi_ellip/studies/two_body_paper_sweeps/runs/spheroid_1_0p7_0p7/spheroid_1_0p7_0p7_rho0p03_E4_sep8_run03_impulse_noproj/multiple_body_complete.dat
================================================
