
================ Simulation setup ================
  Run label:         /work/e643/e643/shared/multi_ellip/studies/two_body_paper_sweeps/runs/spheroid_1_0p7_0p7/spheroid_1_0p7_0p7_rho4_E30_sep5_run01_impulse_noproj/
  Started:           2026-06-22 19:30:32
  Input file:        /work/e643/e643/shared/multi_ellip/studies/two_body_paper_sweeps/runs/spheroid_1_0p7_0p7/spheroid_1_0p7_0p7_rho4_E30_sep5_run01_impulse_noproj/input.txt
  Output file:       /work/e643/e643/shared/multi_ellip/studies/two_body_paper_sweeps/runs/spheroid_1_0p7_0p7/spheroid_1_0p7_0p7_rho4_E30_sep5_run01_impulse_noproj/multiple_body_complete.dat
  Bodies:            2
  Fluid density:     1
  Mesh:              ndiv 2 -> 256 triangles / 516 nodes
  Simulated time:    0 -> 100  (dt = 0.05, ~2000 steps)
  Output cadence:    every 1 step(s)
  Output rows:       ~2001
  Progress cadence:  every 100 step(s)
  CPU cores:         256 available, 8 Rayon worker thread(s)
  Strong coupling:   disabled
  Impulse scheme:    enabled
  Hamiltonian step:  disabled
  Hamiltonian midpt: disabled
  Variational step:  disabled
  Energy projection: disabled
  Projection particular metric: Euclidean
  Fluid KE gradient: disabled  (eps = 0.001, scale = 1, linear = 1, angular = 1)
  Fluid KE discrete gradient: disabled
  Impulse pair metric correction: disabled  (mode = pair discrete-gradient, cutoff = all pairs, inner/outer = 0/0, eps = 0.001, linear scale = 1, angular scale = 0)
  Impulse metric correction: disabled  (internal load constraint = disabled)
  Impulse variational defect probe: disabled
  Impulse quadratic pressure: disabled  (scale = 1)
  Added-mass stab:   disabled
  Exact BEM geometry: disabled
  Exact singular BEM: disabled
  Legacy singular SLP diagnostic: disabled
  Phi-dot blend:     0 (off)

  Solver guidance:
    - Strong coupling: use for stiff close-coupled runs; slower but more implicit.
    - Impulse scheme: use when impulse/momentum conservation or KE drift is the focus. Recommended.
    - Added-mass stab: use for higher mesh counts (ndiv > 3) to preserve stability - deprecated.
================================================
Solver starting - good luck!

Initial state:
  Body  1
    density:          4.000000
    shape axes ratio: (1.000000, 0.700000, 0.700000)
    initial KE ratio: 30.000000
    position:         (-2.500000, 0.000000, 0.000000)
    velocity:         (0.586098, 0.102545, 0.255912)
    angular velocity: (-6.216888, -0.905875, -0.090045)
    orientation:      (w=0.447214, i=0.894427, j=0.000000, k=0.000000)
  Body  2
    density:          4.000000
    shape axes ratio: (1.000000, 0.700000, 0.700000)
    initial KE ratio: 30.000000
    position:         (2.500000, 0.000000, 0.000000)
    velocity:         (0.706421, 0.123597, 0.308449)
    angular velocity: (-1.982315, -0.267996, 5.956259)
    orientation:      (w=0.707107, i=0.000000, j=0.707107, k=0.000000)

Preparing first step: implicit scheme, no bootstrap passes required.
First step may take longer than later steps.

First step completed in 0.318 s.

Step   100/2000    5.0% | t 5.000 | ETA 3m 25s | step 0.11s | KE 225.1434 | drift -0.11% | fluid 1.4540 | solid 223.6894
  Impulse FP iterations last/mean/max 7/7.49/8
Step   200/2000   10.0% | t 10.000 | ETA 3m 14s | step 0.09s | KE 224.9905 | drift -0.17% | fluid 1.5519 | solid 223.4385
  Impulse FP iterations last/mean/max 7/7.50/8
Step   300/2000   15.0% | t 15.000 | ETA 3m 4s | step 0.12s | KE 224.8949 | drift -0.22% | fluid 1.5747 | solid 223.3202
  Impulse FP iterations last/mean/max 8/7.50/8
Step   400/2000   20.0% | t 20.000 | ETA 2m 52s | step 0.10s | KE 224.8333 | drift -0.24% | fluid 1.5791 | solid 223.2542
  Impulse FP iterations last/mean/max 7/7.47/8
Step   500/2000   25.0% | t 25.000 | ETA 2m 40s | step 0.10s | KE 224.7891 | drift -0.26% | fluid 1.5464 | solid 223.2426
  Impulse FP iterations last/mean/max 7/7.45/8
Step   600/2000   30.0% | t 30.000 | ETA 2m 29s | step 0.10s | KE 224.7625 | drift -0.27% | fluid 1.5522 | solid 223.2103
  Impulse FP iterations last/mean/max 7/7.45/8
Step   700/2000   35.0% | t 35.000 | ETA 2m 19s | step 0.11s | KE 224.7430 | drift -0.28% | fluid 1.5918 | solid 223.1512
  Impulse FP iterations last/mean/max 8/7.45/8
Step   800/2000   40.0% | t 40.000 | ETA 2m 8s | step 0.10s | KE 224.7339 | drift -0.29% | fluid 1.4981 | solid 223.2358
  Impulse FP iterations last/mean/max 7/7.46/8
Step   900/2000   45.0% | t 45.000 | ETA 1m 57s | step 0.11s | KE 224.7251 | drift -0.29% | fluid 1.5020 | solid 223.2231
  Impulse FP iterations last/mean/max 7/7.45/8
Step  1000/2000   50.0% | t 50.000 | ETA 1m 46s | step 0.10s | KE 224.7200 | drift -0.29% | fluid 1.4912 | solid 223.2288
  Impulse FP iterations last/mean/max 7/7.44/8
Step  1100/2000   55.0% | t 55.000 | ETA 1m 36s | step 0.11s | KE 224.7154 | drift -0.30% | fluid 1.5872 | solid 223.1282
  Impulse FP iterations last/mean/max 8/7.45/8
Step  1200/2000   60.0% | t 60.000 | ETA 1m 25s | step 0.12s | KE 224.7144 | drift -0.30% | fluid 1.5477 | solid 223.1668
  Impulse FP iterations last/mean/max 8/7.44/8
Step  1300/2000   65.0% | t 65.000 | ETA 1m 14s | step 0.10s | KE 224.7143 | drift -0.30% | fluid 1.5485 | solid 223.1658
  Impulse FP iterations last/mean/max 7/7.45/8
Step  1400/2000   70.0% | t 70.000 | ETA 1m 4s | step 0.10s | KE 224.7143 | drift -0.30% | fluid 1.5812 | solid 223.1332
  Impulse FP iterations last/mean/max 7/7.44/8
Step  1500/2000   75.0% | t 75.000 | ETA 53s | step 0.11s | KE 224.7161 | drift -0.30% | fluid 1.5836 | solid 223.1325
  Impulse FP iterations last/mean/max 8/7.44/8
Step  1600/2000   80.0% | t 80.000 | ETA 42s | step 0.10s | KE 224.7182 | drift -0.29% | fluid 1.5622 | solid 223.1561
  Impulse FP iterations last/mean/max 7/7.44/8
Step  1700/2000   85.0% | t 85.000 | ETA 31s | step 0.10s | KE 224.7219 | drift -0.29% | fluid 1.4625 | solid 223.2594
  Impulse FP iterations last/mean/max 7/7.44/8
Step  1800/2000   90.0% | t 90.000 | ETA 21s | step 0.09s | KE 224.7231 | drift -0.29% | fluid 1.5353 | solid 223.1878
  Impulse FP iterations last/mean/max 7/7.44/8
Step  1900/2000   95.0% | t 95.000 | ETA 10s | step 0.10s | KE 224.7253 | drift -0.29% | fluid 1.5262 | solid 223.1991
  Impulse FP iterations last/mean/max 8/7.44/8
Solver finished successfully - good job!
Results saved successfully.

================== Run summary ==================
  Bodies:            2
  Triangles / nodes: 256 / 516
  Timesteps:         2000  (dt = 0.05)
  Simulated time:    0 -> 100
  First-step setup:  0.318 s
  Mean time/step:    0.1054 s  (excl. first step)
  Total wall time:   3m 30s
  Impulse FP iters last/mean/max: 7 / 7.434 / 8
  Approx impulse solves/step:     7.435
  Impulse start cache hits/direct: 1999 / 1
  Impulse global drift P/H:       1.044685e-8 / 6.649594e-3
  Impulse per-body max drift P/H: 2.000295e-8 / 8.366333e-3
  CPU cores:         256 available, 8 Rayon worker thread(s)
  Started:           2026-06-22 19:30:32
  Finished:          2026-06-22 19:34:03
  Output file:       /work/e643/e643/shared/multi_ellip/studies/two_body_paper_sweeps/runs/spheroid_1_0p7_0p7/spheroid_1_0p7_0p7_rho4_E30_sep5_run01_impulse_noproj/multiple_body_complete.dat
================================================
