
================ Simulation setup ================
  Run label:         /work/e643/e643/shared/multi_ellip/studies/two_body_paper_sweeps/runs/spheroid_1_0p7_0p7/spheroid_1_0p7_0p7_rho0p3_E4_sep8_run01_impulse_noproj/
  Started:           2026-06-22 19:45:54
  Input file:        /work/e643/e643/shared/multi_ellip/studies/two_body_paper_sweeps/runs/spheroid_1_0p7_0p7/spheroid_1_0p7_0p7_rho0p3_E4_sep8_run01_impulse_noproj/input.txt
  Output file:       /work/e643/e643/shared/multi_ellip/studies/two_body_paper_sweeps/runs/spheroid_1_0p7_0p7/spheroid_1_0p7_0p7_rho0p3_E4_sep8_run01_impulse_noproj/multiple_body_complete.dat
  Bodies:            2
  Fluid density:     1
  Mesh:              ndiv 2 -> 256 triangles / 516 nodes
  Simulated time:    0 -> 100  (dt = 0.05, ~2000 steps)
  Output cadence:    every 1 step(s)
  Output rows:       ~2001
  Progress cadence:  every 100 step(s)
  CPU cores:         256 available, 8 Rayon worker thread(s)
  Strong coupling:   disabled
  Impulse scheme:    enabled
  Hamiltonian step:  disabled
  Hamiltonian midpt: disabled
  Variational step:  disabled
  Energy projection: disabled
  Projection particular metric: Euclidean
  Fluid KE gradient: disabled  (eps = 0.001, scale = 1, linear = 1, angular = 1)
  Fluid KE discrete gradient: disabled
  Impulse pair metric correction: disabled  (mode = pair discrete-gradient, cutoff = all pairs, inner/outer = 0/0, eps = 0.001, linear scale = 1, angular scale = 0)
  Impulse metric correction: disabled  (internal load constraint = disabled)
  Impulse variational defect probe: disabled
  Impulse quadratic pressure: disabled  (scale = 1)
  Added-mass stab:   disabled
  Exact BEM geometry: disabled
  Exact singular BEM: disabled
  Legacy singular SLP diagnostic: disabled
  Phi-dot blend:     0 (off)

  Solver guidance:
    - Strong coupling: use for stiff close-coupled runs; slower but more implicit.
    - Impulse scheme: use when impulse/momentum conservation or KE drift is the focus. Recommended.
    - Added-mass stab: use for higher mesh counts (ndiv > 3) to preserve stability - deprecated.
================================================
Solver starting - good luck!

Initial state:
  Body  1
    density:          0.300000
    shape axes ratio: (1.000000, 0.700000, 0.700000)
    initial KE ratio: 4.000000
    position:         (-4.000000, 0.000000, 0.000000)
    velocity:         (-0.926219, -1.922192, -0.340443)
    angular velocity: (1.243801, -3.491471, -5.073560)
    orientation:      (w=0.447214, i=0.894427, j=0.000000, k=0.000000)
  Body  2
    density:          0.300000
    shape axes ratio: (1.000000, 0.700000, 0.700000)
    initial KE ratio: 4.000000
    position:         (4.000000, 0.000000, 0.000000)
    velocity:         (-0.918605, -1.906391, -0.337645)
    angular velocity: (-1.846691, -3.134542, -5.122773)
    orientation:      (w=0.707107, i=0.000000, j=0.707107, k=0.000000)

Preparing first step: implicit scheme, no bootstrap passes required.
First step may take longer than later steps.

First step completed in 0.321 s.

Step   100/2000    5.0% | t 5.000 | ETA 3m 41s | step 0.12s | KE 43.3955 | drift +0.35% | fluid 16.6067 | solid 26.7889
  Impulse FP iterations last/mean/max 12/12.14/13
Step   200/2000   10.0% | t 10.000 | ETA 3m 44s | step 0.15s | KE 42.4435 | drift -1.85% | fluid 16.3673 | solid 26.0762
  Impulse FP iterations last/mean/max 13/12.23/13
Step   300/2000   15.0% | t 15.000 | ETA 3m 52s | step 0.19s | KE 46.6952 | drift +7.98% | fluid 17.3562 | solid 29.3390
  Impulse FP iterations last/mean/max 13/12.40/14
Step   400/2000   20.0% | t 20.000 | ETA 4m 0s | step 0.20s | KE 45.0144 | drift +4.09% | fluid 16.4696 | solid 28.5448
  Impulse FP iterations last/mean/max 13/12.57/14
Step   500/2000   25.0% | t 25.000 | ETA 4m 0s | step 0.20s | KE 67.0979 | drift +55.16% | fluid 19.9817 | solid 47.1162
  Impulse FP iterations last/mean/max 14/12.77/15
Step   600/2000   30.0% | t 30.000 | ETA 3m 55s | step 0.19s | KE 87.2944 | drift +101.86% | fluid 22.0172 | solid 65.2772
  Impulse FP iterations last/mean/max 13/13.00/15
Step   700/2000   35.0% | t 35.000 | ETA 3m 44s | step 0.19s | KE 86.7406 | drift +100.58% | fluid 22.1597 | solid 64.5809
  Impulse FP iterations last/mean/max 13/13.09/15
Step   800/2000   40.0% | t 40.000 | ETA 3m 30s | step 0.19s | KE 86.1994 | drift +99.33% | fluid 22.3051 | solid 63.8943
  Impulse FP iterations last/mean/max 13/13.11/15
Step   900/2000   45.0% | t 45.000 | ETA 3m 14s | step 0.19s | KE 85.5691 | drift +97.87% | fluid 22.2295 | solid 63.3396
  Impulse FP iterations last/mean/max 13/13.09/15
Step  1000/2000   50.0% | t 50.000 | ETA 2m 57s | step 0.19s | KE 85.9114 | drift +98.66% | fluid 22.3487 | solid 63.5627
  Impulse FP iterations last/mean/max 13/13.07/15
Step  1100/2000   55.0% | t 55.000 | ETA 2m 40s | step 0.18s | KE 85.9373 | drift +98.72% | fluid 22.3309 | solid 63.6064
  Impulse FP iterations last/mean/max 13/13.04/15
Step  1200/2000   60.0% | t 60.000 | ETA 2m 22s | step 0.18s | KE 86.2107 | drift +99.36% | fluid 22.4251 | solid 63.7856
  Impulse FP iterations last/mean/max 13/13.03/15
Step  1300/2000   65.0% | t 65.000 | ETA 2m 5s | step 0.18s | KE 86.2498 | drift +99.45% | fluid 22.3580 | solid 63.8918
  Impulse FP iterations last/mean/max 13/13.01/15
Step  1400/2000   70.0% | t 70.000 | ETA 1m 47s | step 0.18s | KE 86.4457 | drift +99.90% | fluid 22.4260 | solid 64.0197
  Impulse FP iterations last/mean/max 13/13.00/15
Step  1500/2000   75.0% | t 75.000 | ETA 1m 29s | step 0.17s | KE 86.5080 | drift +100.04% | fluid 22.4131 | solid 64.0949
  Impulse FP iterations last/mean/max 12/12.98/15
Step  1600/2000   80.0% | t 80.000 | ETA 1m 12s | step 0.17s | KE 86.7539 | drift +100.61% | fluid 22.4677 | solid 64.2862
  Impulse FP iterations last/mean/max 13/12.97/15
Step  1700/2000   85.0% | t 85.000 | ETA 53s | step 0.17s | KE 86.9596 | drift +101.09% | fluid 22.5325 | solid 64.4270
  Impulse FP iterations last/mean/max 13/12.95/15
Step  1800/2000   90.0% | t 90.000 | ETA 35s | step 0.13s | KE 87.1719 | drift +101.58% | fluid 22.4974 | solid 64.6745
  Impulse FP iterations last/mean/max 12/12.94/15
Step  1900/2000   95.0% | t 95.000 | ETA 17s | step 0.13s | KE 87.1829 | drift +101.60% | fluid 22.5717 | solid 64.6112
  Impulse FP iterations last/mean/max 12/12.93/15
Solver finished successfully - good job!
Results saved successfully.

================== Run summary ==================
  Bodies:            2
  Triangles / nodes: 256 / 516
  Timesteps:         2000  (dt = 0.05)
  Simulated time:    0 -> 100
  First-step setup:  0.321 s
  Mean time/step:    0.1733 s  (excl. first step)
  Total wall time:   5m 46s
  Impulse FP iters last/mean/max: 13 / 12.925 / 15
  Approx impulse solves/step:     12.926
  Impulse start cache hits/direct: 1999 / 1
  Impulse global drift P/H:       1.300133e-8 / 5.299111e-2
  Impulse per-body max drift P/H: 1.894871e-8 / 1.446184e-2
  CPU cores:         256 available, 8 Rayon worker thread(s)
  Started:           2026-06-22 19:45:54
  Finished:          2026-06-22 19:51:47
  Output file:       /work/e643/e643/shared/multi_ellip/studies/two_body_paper_sweeps/runs/spheroid_1_0p7_0p7/spheroid_1_0p7_0p7_rho0p3_E4_sep8_run01_impulse_noproj/multiple_body_complete.dat
================================================
