
================ Simulation setup ================
  Run label:         /work/e643/e643/shared/multi_ellip/studies/departing_sphericity_sweep/runs/triaxial/homogeneous/triaxial_homogeneous_eps1_rho1_E0p5_sep8_run06_impulse_noproj/
  Started:           2026-06-24 02:30:22
  Input file:        /work/e643/e643/shared/multi_ellip/studies/departing_sphericity_sweep/runs/triaxial/homogeneous/triaxial_homogeneous_eps1_rho1_E0p5_sep8_run06_impulse_noproj/input.txt
  Output file:       /work/e643/e643/shared/multi_ellip/studies/departing_sphericity_sweep/runs/triaxial/homogeneous/triaxial_homogeneous_eps1_rho1_E0p5_sep8_run06_impulse_noproj/multiple_body_complete.dat
  Bodies:            2
  Fluid density:     1
  Mesh:              ndiv 2 -> 256 triangles / 516 nodes
  Simulated time:    0 -> 100  (dt = 0.05, ~2000 steps)
  Output cadence:    every 1 step(s)
  Output rows:       ~2001
  Progress cadence:  every 100 step(s)
  CPU cores:         256 available, 8 Rayon worker thread(s)
  Strong coupling:   disabled
  Impulse scheme:    enabled
  Hamiltonian step:  disabled
  Hamiltonian midpt: disabled
  Variational step:  disabled
  Energy projection: disabled
  Projection particular metric: Euclidean
  Fluid KE gradient: disabled  (eps = 0.001, scale = 1, linear = 1, angular = 1)
  Fluid KE discrete gradient: disabled
  Impulse pair metric correction: disabled  (mode = pair discrete-gradient, cutoff = all pairs, inner/outer = 0/0, eps = 0.001, linear scale = 1, angular scale = 0)
  Impulse metric correction: disabled  (internal load constraint = disabled)
  Impulse variational defect probe: disabled
  Impulse quadratic pressure: disabled  (scale = 1)
  Added-mass stab:   disabled
  Exact BEM geometry: disabled
  Exact singular BEM: disabled
  Legacy singular SLP diagnostic: disabled
  Phi-dot blend:     0 (off)

  Solver guidance:
    - Strong coupling: use for stiff close-coupled runs; slower but more implicit.
    - Impulse scheme: use when impulse/momentum conservation or KE drift is the focus. Recommended.
    - Added-mass stab: use for higher mesh counts (ndiv > 3) to preserve stability - deprecated.
================================================
Solver starting - good luck!

Initial state:
  Body  1
    density:          1.000000
    shape axes ratio: (1.000000, 0.500000, 0.250000)
    initial KE ratio: 0.500000
    position:         (-4.000000, 0.000000, 0.000000)
    velocity:         (-1.451649, -5.351654, -6.181683)
    angular velocity: (0.742895, -5.528201, -2.892320)
    orientation:      (w=0.374921, i=0.236116, j=0.521831, k=0.728955)
  Body  2
    density:          1.000000
    shape axes ratio: (1.000000, 0.500000, 0.250000)
    initial KE ratio: 0.500000
    position:         (4.000000, 0.000000, 0.000000)
    velocity:         (-1.055193, -3.890079, -4.493422)
    angular velocity: (5.122318, -3.246863, 1.642607)
    orientation:      (w=-0.278295, i=0.357327, j=0.679770, k=0.576873)

Preparing first step: implicit scheme, no bootstrap passes required.
First step may take longer than later steps.

First step completed in 0.465 s.

Step   100/2000    5.0% | t 5.000 | ETA 7m 38s | step 0.26s | KE 610.0706 | drift +0.09% | fluid 239.6954 | solid 370.3752
  Impulse FP iterations last/mean/max 17/16.49/19
Step   200/2000   10.0% | t 10.000 | ETA 7m 16s | step 0.24s | KE 608.3852 | drift -0.19% | fluid 243.3987 | solid 364.9865
  Impulse FP iterations last/mean/max 16/16.52/19
Step   300/2000   15.0% | t 15.000 | ETA 6m 52s | step 0.24s | KE 607.5024 | drift -0.33% | fluid 212.7383 | solid 394.7642
  Impulse FP iterations last/mean/max 16/16.49/19
Step   400/2000   20.0% | t 20.000 | ETA 6m 27s | step 0.23s | KE 608.8667 | drift -0.11% | fluid 221.5025 | solid 387.3642
  Impulse FP iterations last/mean/max 15/16.46/19
Step   500/2000   25.0% | t 25.000 | ETA 6m 3s | step 0.24s | KE 606.9459 | drift -0.43% | fluid 237.8372 | solid 369.1087
  Impulse FP iterations last/mean/max 17/16.50/19
Step   600/2000   30.0% | t 30.000 | ETA 5m 39s | step 0.25s | KE 605.7981 | drift -0.61% | fluid 227.9401 | solid 377.8580
  Impulse FP iterations last/mean/max 16/16.51/19
Step   700/2000   35.0% | t 35.000 | ETA 5m 14s | step 0.25s | KE 602.0561 | drift -1.23% | fluid 295.6628 | solid 306.3933
  Impulse FP iterations last/mean/max 17/16.51/19
Step   800/2000   40.0% | t 40.000 | ETA 4m 50s | step 0.23s | KE 605.9463 | drift -0.59% | fluid 260.4222 | solid 345.5241
  Impulse FP iterations last/mean/max 16/16.50/19
Step   900/2000   45.0% | t 45.000 | ETA 4m 26s | step 0.25s | KE 606.0359 | drift -0.57% | fluid 263.1987 | solid 342.8373
  Impulse FP iterations last/mean/max 16/16.49/19
Step  1000/2000   50.0% | t 50.000 | ETA 3m 58s | step 0.19s | KE 607.5619 | drift -0.32% | fluid 260.1076 | solid 347.4542
  Impulse FP iterations last/mean/max 17/16.48/19
Step  1100/2000   55.0% | t 55.000 | ETA 3m 31s | step 0.17s | KE 608.7493 | drift -0.13% | fluid 213.4193 | solid 395.3300
  Impulse FP iterations last/mean/max 16/16.50/19
Step  1200/2000   60.0% | t 60.000 | ETA 3m 4s | step 0.18s | KE 609.0484 | drift -0.08% | fluid 239.0121 | solid 370.0363
  Impulse FP iterations last/mean/max 16/16.50/19
Step  1300/2000   65.0% | t 65.000 | ETA 2m 38s | step 0.17s | KE 610.1724 | drift +0.10% | fluid 221.2257 | solid 388.9467
  Impulse FP iterations last/mean/max 17/16.50/19
Step  1400/2000   70.0% | t 70.000 | ETA 2m 13s | step 0.14s | KE 609.6617 | drift +0.02% | fluid 221.2891 | solid 388.3726
  Impulse FP iterations last/mean/max 16/16.50/19
Step  1500/2000   75.0% | t 75.000 | ETA 1m 48s | step 0.14s | KE 607.5712 | drift -0.32% | fluid 240.0338 | solid 367.5374
  Impulse FP iterations last/mean/max 16/16.49/19
Step  1600/2000   80.0% | t 80.000 | ETA 1m 25s | step 0.15s | KE 607.3054 | drift -0.37% | fluid 281.0249 | solid 326.2805
  Impulse FP iterations last/mean/max 17/16.50/19
Step  1700/2000   85.0% | t 85.000 | ETA 1m 2s | step 0.14s | KE 609.9288 | drift +0.06% | fluid 303.6997 | solid 306.2292
  Impulse FP iterations last/mean/max 17/16.50/19
Step  1800/2000   90.0% | t 90.000 | ETA 40s | step 0.13s | KE 610.0163 | drift +0.08% | fluid 253.4055 | solid 356.6109
  Impulse FP iterations last/mean/max 16/16.51/19
Step  1900/2000   95.0% | t 95.000 | ETA 20s | step 0.15s | KE 609.6535 | drift +0.02% | fluid 241.4343 | solid 368.2192
  Impulse FP iterations last/mean/max 17/16.51/19
Solver finished successfully - good job!
Results saved successfully.

================== Run summary ==================
  Bodies:            2
  Triangles / nodes: 256 / 516
  Timesteps:         2000  (dt = 0.05)
  Simulated time:    0 -> 100
  First-step setup:  0.465 s
  Mean time/step:    0.1984 s  (excl. first step)
  Total wall time:   6m 37s
  Impulse FP iters last/mean/max: 17 / 16.511 / 19
  Approx impulse solves/step:     16.511
  Impulse start cache hits/direct: 1999 / 1
  Impulse global drift P/H:       1.015562e-9 / 1.810511e-2
  Impulse per-body max drift P/H: 2.967242e-9 / 1.719718e-2
  CPU cores:         256 available, 8 Rayon worker thread(s)
  Started:           2026-06-24 02:30:22
  Finished:          2026-06-24 02:37:00
  Output file:       /work/e643/e643/shared/multi_ellip/studies/departing_sphericity_sweep/runs/triaxial/homogeneous/triaxial_homogeneous_eps1_rho1_E0p5_sep8_run06_impulse_noproj/multiple_body_complete.dat
================================================
