
================ Simulation setup ================
  Run label:         /work/e643/e643/shared/multi_ellip/studies/two_body_paper_sweeps/runs/spheroid_1_0p7_0p7/spheroid_1_0p7_0p7_rho4_E0p2_sep8_run01_impulse_noproj/
  Started:           2026-06-22 19:26:45
  Input file:        /work/e643/e643/shared/multi_ellip/studies/two_body_paper_sweeps/runs/spheroid_1_0p7_0p7/spheroid_1_0p7_0p7_rho4_E0p2_sep8_run01_impulse_noproj/input.txt
  Output file:       /work/e643/e643/shared/multi_ellip/studies/two_body_paper_sweeps/runs/spheroid_1_0p7_0p7/spheroid_1_0p7_0p7_rho4_E0p2_sep8_run01_impulse_noproj/multiple_body_complete.dat
  Bodies:            2
  Fluid density:     1
  Mesh:              ndiv 2 -> 256 triangles / 516 nodes
  Simulated time:    0 -> 100  (dt = 0.05, ~2000 steps)
  Output cadence:    every 1 step(s)
  Output rows:       ~2001
  Progress cadence:  every 100 step(s)
  CPU cores:         256 available, 8 Rayon worker thread(s)
  Strong coupling:   disabled
  Impulse scheme:    enabled
  Hamiltonian step:  disabled
  Hamiltonian midpt: disabled
  Variational step:  disabled
  Energy projection: disabled
  Projection particular metric: Euclidean
  Fluid KE gradient: disabled  (eps = 0.001, scale = 1, linear = 1, angular = 1)
  Fluid KE discrete gradient: disabled
  Impulse pair metric correction: disabled  (mode = pair discrete-gradient, cutoff = all pairs, inner/outer = 0/0, eps = 0.001, linear scale = 1, angular scale = 0)
  Impulse metric correction: disabled  (internal load constraint = disabled)
  Impulse variational defect probe: disabled
  Impulse quadratic pressure: disabled  (scale = 1)
  Added-mass stab:   disabled
  Exact BEM geometry: disabled
  Exact singular BEM: disabled
  Legacy singular SLP diagnostic: disabled
  Phi-dot blend:     0 (off)

  Solver guidance:
    - Strong coupling: use for stiff close-coupled runs; slower but more implicit.
    - Impulse scheme: use when impulse/momentum conservation or KE drift is the focus. Recommended.
    - Added-mass stab: use for higher mesh counts (ndiv > 3) to preserve stability - deprecated.
================================================
Solver starting - good luck!

Initial state:
  Body  1
    density:          4.000000
    shape axes ratio: (1.000000, 0.700000, 0.700000)
    initial KE ratio: 0.200000
    position:         (-4.000000, 0.000000, 0.000000)
    velocity:         (0.420288, -8.918361, 3.210081)
    angular velocity: (-2.373646, -3.677970, 4.507411)
    orientation:      (w=0.447214, i=0.894427, j=0.000000, k=0.000000)
  Body  2
    density:          4.000000
    shape axes ratio: (1.000000, 0.700000, 0.700000)
    initial KE ratio: 0.200000
    position:         (4.000000, 0.000000, 0.000000)
    velocity:         (0.355538, -7.544397, 2.715536)
    angular velocity: (-6.068991, -1.461801, 0.713378)
    orientation:      (w=0.707107, i=0.000000, j=0.707107, k=0.000000)

Preparing first step: implicit scheme, no bootstrap passes required.
First step may take longer than later steps.

First step completed in 0.295 s.

Step   100/2000    5.0% | t 5.000 | ETA 3m 28s | step 0.12s | KE 1817.7691 | drift -0.08% | fluid 175.3742 | solid 1642.3949
  Impulse FP iterations last/mean/max 8/7.85/8
Step   200/2000   10.0% | t 10.000 | ETA 3m 18s | step 0.11s | KE 1811.5597 | drift -0.42% | fluid 174.4824 | solid 1637.0773
  Impulse FP iterations last/mean/max 8/7.86/8
Step   300/2000   15.0% | t 15.000 | ETA 3m 7s | step 0.11s | KE 1809.9046 | drift -0.51% | fluid 203.6004 | solid 1606.3042
  Impulse FP iterations last/mean/max 8/7.87/8
Step   400/2000   20.0% | t 20.000 | ETA 2m 57s | step 0.10s | KE 1810.0308 | drift -0.50% | fluid 213.4564 | solid 1596.5745
  Impulse FP iterations last/mean/max 7/7.85/8
Step   500/2000   25.0% | t 25.000 | ETA 2m 45s | step 0.11s | KE 1809.6601 | drift -0.52% | fluid 216.0736 | solid 1593.5864
  Impulse FP iterations last/mean/max 8/7.84/8
Step   600/2000   30.0% | t 30.000 | ETA 2m 35s | step 0.11s | KE 1810.6235 | drift -0.47% | fluid 180.1696 | solid 1630.4539
  Impulse FP iterations last/mean/max 7/7.84/8
Step   700/2000   35.0% | t 35.000 | ETA 2m 24s | step 0.10s | KE 1810.8123 | drift -0.46% | fluid 181.3402 | solid 1629.4721
  Impulse FP iterations last/mean/max 8/7.83/8
Step   800/2000   40.0% | t 40.000 | ETA 2m 13s | step 0.09s | KE 1811.0896 | drift -0.44% | fluid 184.6689 | solid 1626.4207
  Impulse FP iterations last/mean/max 7/7.83/8
Step   900/2000   45.0% | t 45.000 | ETA 2m 2s | step 0.11s | KE 1810.7088 | drift -0.46% | fluid 198.5037 | solid 1612.2051
  Impulse FP iterations last/mean/max 8/7.84/8
Step  1000/2000   50.0% | t 50.000 | ETA 1m 50s | step 0.10s | KE 1809.8300 | drift -0.51% | fluid 205.7016 | solid 1604.1285
  Impulse FP iterations last/mean/max 8/7.84/8
Step  1100/2000   55.0% | t 55.000 | ETA 1m 38s | step 0.10s | KE 1809.9299 | drift -0.51% | fluid 197.1340 | solid 1612.7960
  Impulse FP iterations last/mean/max 7/7.84/9
Step  1200/2000   60.0% | t 60.000 | ETA 1m 27s | step 0.11s | KE 1810.0565 | drift -0.50% | fluid 206.0140 | solid 1604.0425
  Impulse FP iterations last/mean/max 8/7.84/9
Step  1300/2000   65.0% | t 65.000 | ETA 1m 17s | step 0.11s | KE 1811.1831 | drift -0.44% | fluid 185.8977 | solid 1625.2854
  Impulse FP iterations last/mean/max 8/7.84/9
Step  1400/2000   70.0% | t 70.000 | ETA 1m 6s | step 0.12s | KE 1810.8845 | drift -0.45% | fluid 188.1602 | solid 1622.7243
  Impulse FP iterations last/mean/max 8/7.83/9
Step  1500/2000   75.0% | t 75.000 | ETA 55s | step 0.11s | KE 1810.7208 | drift -0.46% | fluid 177.2950 | solid 1633.4257
  Impulse FP iterations last/mean/max 8/7.83/9
Step  1600/2000   80.0% | t 80.000 | ETA 44s | step 0.11s | KE 1810.1079 | drift -0.50% | fluid 196.0063 | solid 1614.1016
  Impulse FP iterations last/mean/max 8/7.83/9
Step  1700/2000   85.0% | t 85.000 | ETA 33s | step 0.11s | KE 1809.6894 | drift -0.52% | fluid 219.5589 | solid 1590.1304
  Impulse FP iterations last/mean/max 8/7.83/9
Step  1800/2000   90.0% | t 90.000 | ETA 21s | step 0.07s | KE 1810.4841 | drift -0.48% | fluid 205.7371 | solid 1604.7470
  Impulse FP iterations last/mean/max 7/7.83/9
Step  1900/2000   95.0% | t 95.000 | ETA 10s | step 0.08s | KE 1810.4760 | drift -0.48% | fluid 194.3303 | solid 1616.1458
  Impulse FP iterations last/mean/max 8/7.83/9
Solver finished successfully - good job!
Results saved successfully.

================== Run summary ==================
  Bodies:            2
  Triangles / nodes: 256 / 516
  Timesteps:         2000  (dt = 0.05)
  Simulated time:    0 -> 100
  First-step setup:  0.295 s
  Mean time/step:    0.1059 s  (excl. first step)
  Total wall time:   3m 31s
  Impulse FP iters last/mean/max: 8 / 7.835 / 9
  Approx impulse solves/step:     7.835
  Impulse start cache hits/direct: 1999 / 1
  Impulse global drift P/H:       6.073002e-9 / 8.533475e-3
  Impulse per-body max drift P/H: 6.908049e-9 / 1.384465e-3
  CPU cores:         256 available, 8 Rayon worker thread(s)
  Started:           2026-06-22 19:26:45
  Finished:          2026-06-22 19:30:17
  Output file:       /work/e643/e643/shared/multi_ellip/studies/two_body_paper_sweeps/runs/spheroid_1_0p7_0p7/spheroid_1_0p7_0p7_rho4_E0p2_sep8_run01_impulse_noproj/multiple_body_complete.dat
================================================
