
================ Simulation setup ================
  Run label:         /work/e643/e643/shared/multi_ellip/studies/two_body_paper_sweeps/runs/spheroid_1_0p7_0p7/spheroid_1_0p7_0p7_rho10_E30_sep11_run01_impulse_noproj/
  Started:           2026-06-22 19:26:44
  Input file:        /work/e643/e643/shared/multi_ellip/studies/two_body_paper_sweeps/runs/spheroid_1_0p7_0p7/spheroid_1_0p7_0p7_rho10_E30_sep11_run01_impulse_noproj/input.txt
  Output file:       /work/e643/e643/shared/multi_ellip/studies/two_body_paper_sweeps/runs/spheroid_1_0p7_0p7/spheroid_1_0p7_0p7_rho10_E30_sep11_run01_impulse_noproj/multiple_body_complete.dat
  Bodies:            2
  Fluid density:     1
  Mesh:              ndiv 2 -> 256 triangles / 516 nodes
  Simulated time:    0 -> 100  (dt = 0.05, ~2000 steps)
  Output cadence:    every 1 step(s)
  Output rows:       ~2001
  Progress cadence:  every 100 step(s)
  CPU cores:         256 available, 8 Rayon worker thread(s)
  Strong coupling:   disabled
  Impulse scheme:    enabled
  Hamiltonian step:  disabled
  Hamiltonian midpt: disabled
  Variational step:  disabled
  Energy projection: disabled
  Projection particular metric: Euclidean
  Fluid KE gradient: disabled  (eps = 0.001, scale = 1, linear = 1, angular = 1)
  Fluid KE discrete gradient: disabled
  Impulse pair metric correction: disabled  (mode = pair discrete-gradient, cutoff = all pairs, inner/outer = 0/0, eps = 0.001, linear scale = 1, angular scale = 0)
  Impulse metric correction: disabled  (internal load constraint = disabled)
  Impulse variational defect probe: disabled
  Impulse quadratic pressure: disabled  (scale = 1)
  Added-mass stab:   disabled
  Exact BEM geometry: disabled
  Exact singular BEM: disabled
  Legacy singular SLP diagnostic: disabled
  Phi-dot blend:     0 (off)

  Solver guidance:
    - Strong coupling: use for stiff close-coupled runs; slower but more implicit.
    - Impulse scheme: use when impulse/momentum conservation or KE drift is the focus. Recommended.
    - Added-mass stab: use for higher mesh counts (ndiv > 3) to preserve stability - deprecated.
================================================
Solver starting - good luck!

Initial state:
  Body  1
    density:          10.000000
    shape axes ratio: (1.000000, 0.700000, 0.700000)
    initial KE ratio: 30.000000
    position:         (-5.500000, 0.000000, 0.000000)
    velocity:         (0.616496, -0.137720, 0.397680)
    angular velocity: (-3.671992, -1.929866, -4.719164)
    orientation:      (w=0.447214, i=0.894427, j=0.000000, k=0.000000)
  Body  2
    density:          10.000000
    shape axes ratio: (1.000000, 0.700000, 0.700000)
    initial KE ratio: 30.000000
    position:         (5.500000, 0.000000, 0.000000)
    velocity:         (0.653180, -0.145915, 0.421344)
    angular velocity: (1.000740, -5.796389, -2.208803)
    orientation:      (w=0.707107, i=0.000000, j=0.707107, k=0.000000)

Preparing first step: implicit scheme, no bootstrap passes required.
First step may take longer than later steps.

First step completed in 0.247 s.

Step   100/2000    5.0% | t 5.000 | ETA 3m 7s | step 0.10s | KE 760.7150 | drift -0.01% | fluid 6.3037 | solid 754.4113
  Impulse FP iterations last/mean/max 7/7.03/8
Step   200/2000   10.0% | t 10.000 | ETA 2m 55s | step 0.11s | KE 760.6053 | drift -0.03% | fluid 6.4253 | solid 754.1801
  Impulse FP iterations last/mean/max 8/6.99/8
Step   300/2000   15.0% | t 15.000 | ETA 2m 46s | step 0.09s | KE 760.5270 | drift -0.04% | fluid 6.3543 | solid 754.1727
  Impulse FP iterations last/mean/max 6/6.97/8
Step   400/2000   20.0% | t 20.000 | ETA 2m 36s | step 0.09s | KE 760.4452 | drift -0.05% | fluid 6.1978 | solid 754.2475
  Impulse FP iterations last/mean/max 7/6.97/8
Step   500/2000   25.0% | t 25.000 | ETA 2m 27s | step 0.10s | KE 760.3610 | drift -0.06% | fluid 6.6001 | solid 753.7609
  Impulse FP iterations last/mean/max 7/6.97/8
Step   600/2000   30.0% | t 30.000 | ETA 2m 17s | step 0.07s | KE 760.3030 | drift -0.07% | fluid 6.2518 | solid 754.0511
  Impulse FP iterations last/mean/max 6/6.96/8
Step   700/2000   35.0% | t 35.000 | ETA 2m 7s | step 0.10s | KE 760.2321 | drift -0.08% | fluid 6.4560 | solid 753.7761
  Impulse FP iterations last/mean/max 7/6.98/8
Step   800/2000   40.0% | t 40.000 | ETA 1m 57s | step 0.09s | KE 760.1686 | drift -0.08% | fluid 6.4936 | solid 753.6750
  Impulse FP iterations last/mean/max 7/6.98/8
Step   900/2000   45.0% | t 45.000 | ETA 1m 48s | step 0.11s | KE 760.1243 | drift -0.09% | fluid 6.1787 | solid 753.9456
  Impulse FP iterations last/mean/max 7/6.98/8
Step  1000/2000   50.0% | t 50.000 | ETA 1m 38s | step 0.10s | KE 760.0605 | drift -0.10% | fluid 6.5317 | solid 753.5288
  Impulse FP iterations last/mean/max 7/6.97/8
Step  1100/2000   55.0% | t 55.000 | ETA 1m 28s | step 0.09s | KE 760.0179 | drift -0.10% | fluid 6.3619 | solid 753.6560
  Impulse FP iterations last/mean/max 7/6.97/8
Step  1200/2000   60.0% | t 60.000 | ETA 1m 18s | step 0.09s | KE 759.9777 | drift -0.11% | fluid 6.3347 | solid 753.6430
  Impulse FP iterations last/mean/max 7/6.97/8
Step  1300/2000   65.0% | t 65.000 | ETA 1m 9s | step 0.11s | KE 759.9247 | drift -0.12% | fluid 6.4541 | solid 753.4706
  Impulse FP iterations last/mean/max 7/6.97/8
Step  1400/2000   70.0% | t 70.000 | ETA 59s | step 0.09s | KE 759.8963 | drift -0.12% | fluid 6.2873 | solid 753.6089
  Impulse FP iterations last/mean/max 6/6.97/8
Step  1500/2000   75.0% | t 75.000 | ETA 49s | step 0.12s | KE 759.8563 | drift -0.13% | fluid 6.1847 | solid 753.6716
  Impulse FP iterations last/mean/max 8/6.97/8
Step  1600/2000   80.0% | t 80.000 | ETA 39s | step 0.10s | KE 759.8160 | drift -0.13% | fluid 6.5622 | solid 753.2537
  Impulse FP iterations last/mean/max 7/6.97/8
Step  1700/2000   85.0% | t 85.000 | ETA 29s | step 0.09s | KE 759.7955 | drift -0.13% | fluid 6.0467 | solid 753.7488
  Impulse FP iterations last/mean/max 6/6.98/8
Step  1800/2000   90.0% | t 90.000 | ETA 19s | step 0.10s | KE 759.7550 | drift -0.14% | fluid 6.5198 | solid 753.2352
  Impulse FP iterations last/mean/max 7/6.98/8
Step  1900/2000   95.0% | t 95.000 | ETA 9s | step 0.09s | KE 759.7288 | drift -0.14% | fluid 6.1651 | solid 753.5637
  Impulse FP iterations last/mean/max 7/6.98/8
Solver finished successfully - good job!
Results saved successfully.

================== Run summary ==================
  Bodies:            2
  Triangles / nodes: 256 / 516
  Timesteps:         2000  (dt = 0.05)
  Simulated time:    0 -> 100
  First-step setup:  0.247 s
  Mean time/step:    0.0980 s  (excl. first step)
  Total wall time:   3m 16s
  Impulse FP iters last/mean/max: 7 / 6.973 / 8
  Approx impulse solves/step:     6.974
  Impulse start cache hits/direct: 1999 / 1
  Impulse global drift P/H:       1.222754e-8 / 2.354997e-3
  Impulse per-body max drift P/H: 1.751004e-8 / 4.397090e-3
  CPU cores:         256 available, 8 Rayon worker thread(s)
  Started:           2026-06-22 19:26:44
  Finished:          2026-06-22 19:30:01
  Output file:       /work/e643/e643/shared/multi_ellip/studies/two_body_paper_sweeps/runs/spheroid_1_0p7_0p7/spheroid_1_0p7_0p7_rho10_E30_sep11_run01_impulse_noproj/multiple_body_complete.dat
================================================
