
================ Simulation setup ================
  Run label:         /work/e643/e643/shared/multi_ellip/studies/two_body_paper_sweeps/runs/spheroid_1_0p7_0p7/spheroid_1_0p7_0p7_rho1_E0p2_sep3_run04_impulse_noproj/
  Started:           2026-06-24 01:29:35
  Input file:        /work/e643/e643/shared/multi_ellip/studies/two_body_paper_sweeps/runs/spheroid_1_0p7_0p7/spheroid_1_0p7_0p7_rho1_E0p2_sep3_run04_impulse_noproj/input.txt
  Output file:       /work/e643/e643/shared/multi_ellip/studies/two_body_paper_sweeps/runs/spheroid_1_0p7_0p7/spheroid_1_0p7_0p7_rho1_E0p2_sep3_run04_impulse_noproj/multiple_body_complete.dat
  Bodies:            2
  Fluid density:     1
  Mesh:              ndiv 2 -> 256 triangles / 516 nodes
  Simulated time:    0 -> 100  (dt = 0.05, ~2000 steps)
  Output cadence:    every 1 step(s)
  Output rows:       ~2001
  Progress cadence:  every 100 step(s)
  CPU cores:         256 available, 8 Rayon worker thread(s)
  Strong coupling:   disabled
  Impulse scheme:    enabled
  Hamiltonian step:  disabled
  Hamiltonian midpt: disabled
  Variational step:  disabled
  Energy projection: disabled
  Projection particular metric: Euclidean
  Fluid KE gradient: disabled  (eps = 0.001, scale = 1, linear = 1, angular = 1)
  Fluid KE discrete gradient: disabled
  Impulse pair metric correction: disabled  (mode = pair discrete-gradient, cutoff = all pairs, inner/outer = 0/0, eps = 0.001, linear scale = 1, angular scale = 0)
  Impulse metric correction: disabled  (internal load constraint = disabled)
  Impulse variational defect probe: disabled
  Impulse quadratic pressure: disabled  (scale = 1)
  Added-mass stab:   disabled
  Exact BEM geometry: disabled
  Exact singular BEM: disabled
  Legacy singular SLP diagnostic: disabled
  Phi-dot blend:     0 (off)

  Solver guidance:
    - Strong coupling: use for stiff close-coupled runs; slower but more implicit.
    - Impulse scheme: use when impulse/momentum conservation or KE drift is the focus. Recommended.
    - Added-mass stab: use for higher mesh counts (ndiv > 3) to preserve stability - deprecated.
================================================
Solver starting - good luck!

Initial state:
  Body  1
    density:          1.000000
    shape axes ratio: (1.000000, 0.700000, 0.700000)
    initial KE ratio: 0.200000
    position:         (-1.500000, 0.000000, 0.000000)
    velocity:         (7.809423, -5.035582, -2.196068)
    angular velocity: (-2.057808, -0.773338, -5.886068)
    orientation:      (w=0.099591, i=-0.718286, j=-0.085253, k=0.683286)
  Body  2
    density:          1.000000
    shape axes ratio: (1.000000, 0.700000, 0.700000)
    initial KE ratio: 0.200000
    position:         (1.500000, 0.000000, 0.000000)
    velocity:         (7.845537, -5.058868, -2.206223)
    angular velocity: (-1.790147, 1.787786, 5.751314)
    orientation:      (w=0.029525, i=0.209449, j=0.655652, k=-0.724830)

Preparing first step: implicit scheme, no bootstrap passes required.
First step may take longer than later steps.

First step completed in 0.319 s.

Step   100/2000    5.0% | t 5.000 | ETA 5m 27s | step 0.17s | KE 4196.1792 | drift +530.31% | fluid 300.1539 | solid 3896.0253
  Impulse FP iterations last/mean/max 12/11.66/14
Step   200/2000   10.0% | t 10.000 | ETA 4m 58s | step 0.16s | KE 4251.2945 | drift +538.59% | fluid 297.6699 | solid 3953.6247
  Impulse FP iterations last/mean/max 11/11.36/14
Step   300/2000   15.0% | t 15.000 | ETA 4m 36s | step 0.16s | KE 4223.1208 | drift +534.36% | fluid 308.9788 | solid 3914.1421
  Impulse FP iterations last/mean/max 11/11.22/14
Step   400/2000   20.0% | t 20.000 | ETA 4m 17s | step 0.14s | KE 4260.4271 | drift +539.96% | fluid 295.8049 | solid 3964.6222
  Impulse FP iterations last/mean/max 10/11.13/14
Step   500/2000   25.0% | t 25.000 | ETA 3m 59s | step 0.16s | KE 4274.5633 | drift +542.09% | fluid 290.5520 | solid 3984.0113
  Impulse FP iterations last/mean/max 11/11.07/14
Step   600/2000   30.0% | t 30.000 | ETA 3m 42s | step 0.16s | KE 4231.8750 | drift +535.67% | fluid 306.1042 | solid 3925.7707
  Impulse FP iterations last/mean/max 11/11.02/14
Step   700/2000   35.0% | t 35.000 | ETA 3m 25s | step 0.15s | KE 4231.1132 | drift +535.56% | fluid 305.2693 | solid 3925.8439
  Impulse FP iterations last/mean/max 10/10.99/14
Step   800/2000   40.0% | t 40.000 | ETA 3m 9s | step 0.16s | KE 4266.7345 | drift +540.91% | fluid 291.4230 | solid 3975.3115
  Impulse FP iterations last/mean/max 11/10.97/14
Step   900/2000   45.0% | t 45.000 | ETA 2m 53s | step 0.16s | KE 4250.9630 | drift +538.54% | fluid 298.6195 | solid 3952.3435
  Impulse FP iterations last/mean/max 11/10.95/14
Step  1000/2000   50.0% | t 50.000 | ETA 2m 37s | step 0.13s | KE 4228.1997 | drift +535.12% | fluid 308.4607 | solid 3919.7390
  Impulse FP iterations last/mean/max 10/10.94/14
Step  1100/2000   55.0% | t 55.000 | ETA 2m 20s | step 0.15s | KE 4261.4647 | drift +540.12% | fluid 295.4209 | solid 3966.0437
  Impulse FP iterations last/mean/max 11/10.93/14
Step  1200/2000   60.0% | t 60.000 | ETA 2m 4s | step 0.14s | KE 4267.9669 | drift +541.09% | fluid 291.5470 | solid 3976.4200
  Impulse FP iterations last/mean/max 11/10.92/14
Step  1300/2000   65.0% | t 65.000 | ETA 1m 48s | step 0.14s | KE 4224.2807 | drift +534.53% | fluid 307.2960 | solid 3916.9847
  Impulse FP iterations last/mean/max 11/10.91/14
Step  1400/2000   70.0% | t 70.000 | ETA 1m 32s | step 0.12s | KE 4232.8311 | drift +535.82% | fluid 304.2405 | solid 3928.5906
  Impulse FP iterations last/mean/max 11/10.90/14
Step  1500/2000   75.0% | t 75.000 | ETA 1m 15s | step 0.10s | KE 4272.8435 | drift +541.83% | fluid 290.1926 | solid 3982.6509
  Impulse FP iterations last/mean/max 10/10.90/14
Step  1600/2000   80.0% | t 80.000 | ETA 59s | step 0.12s | KE 4251.7970 | drift +538.67% | fluid 299.4248 | solid 3952.3723
  Impulse FP iterations last/mean/max 11/10.89/14
Step  1700/2000   85.0% | t 85.000 | ETA 43s | step 0.10s | KE 4228.4868 | drift +535.16% | fluid 307.9118 | solid 3920.5750
  Impulse FP iterations last/mean/max 10/10.89/14
Step  1800/2000   90.0% | t 90.000 | ETA 28s | step 0.11s | KE 4259.1146 | drift +539.76% | fluid 294.4069 | solid 3964.7078
  Impulse FP iterations last/mean/max 11/10.88/14
Step  1900/2000   95.0% | t 95.000 | ETA 14s | step 0.10s | KE 4259.3872 | drift +539.81% | fluid 293.2451 | solid 3966.1421
  Impulse FP iterations last/mean/max 11/10.88/14
Solver finished successfully - good job!
Results saved successfully.

================== Run summary ==================
  Bodies:            2
  Triangles / nodes: 256 / 516
  Timesteps:         2000  (dt = 0.05)
  Simulated time:    0 -> 100
  First-step setup:  0.319 s
  Mean time/step:    0.1396 s  (excl. first step)
  Total wall time:   4m 39s
  Impulse FP iters last/mean/max: 11 / 10.877 / 14
  Approx impulse solves/step:     10.877
  Impulse start cache hits/direct: 1999 / 1
  Impulse global drift P/H:       2.026070e-8 / 3.867184e0
  Impulse per-body max drift P/H: 4.450470e-8 / 1.202887e0
  CPU cores:         256 available, 8 Rayon worker thread(s)
  Started:           2026-06-24 01:29:35
  Finished:          2026-06-24 01:34:15
  Output file:       /work/e643/e643/shared/multi_ellip/studies/two_body_paper_sweeps/runs/spheroid_1_0p7_0p7/spheroid_1_0p7_0p7_rho1_E0p2_sep3_run04_impulse_noproj/multiple_body_complete.dat
================================================
