
================ Simulation setup ================
  Run label:         /work/e643/e643/shared/multi_ellip/studies/departing_sphericity_sweep/runs/spheroid_prolate/homogeneous/spheroid_prolate_homogeneous_eps0p003_rho1_E0p5_sep8_run07_impulse_noproj/
  Started:           2026-06-24 02:26:39
  Input file:        /work/e643/e643/shared/multi_ellip/studies/departing_sphericity_sweep/runs/spheroid_prolate/homogeneous/spheroid_prolate_homogeneous_eps0p003_rho1_E0p5_sep8_run07_impulse_noproj/input.txt
  Output file:       /work/e643/e643/shared/multi_ellip/studies/departing_sphericity_sweep/runs/spheroid_prolate/homogeneous/spheroid_prolate_homogeneous_eps0p003_rho1_E0p5_sep8_run07_impulse_noproj/multiple_body_complete.dat
  Bodies:            2
  Fluid density:     1
  Mesh:              ndiv 2 -> 256 triangles / 516 nodes
  Simulated time:    0 -> 100  (dt = 0.05, ~2000 steps)
  Output cadence:    every 1 step(s)
  Output rows:       ~2001
  Progress cadence:  every 100 step(s)
  CPU cores:         256 available, 8 Rayon worker thread(s)
  Strong coupling:   disabled
  Impulse scheme:    enabled
  Hamiltonian step:  disabled
  Hamiltonian midpt: disabled
  Variational step:  disabled
  Energy projection: disabled
  Projection particular metric: Euclidean
  Fluid KE gradient: disabled  (eps = 0.001, scale = 1, linear = 1, angular = 1)
  Fluid KE discrete gradient: disabled
  Impulse pair metric correction: disabled  (mode = pair discrete-gradient, cutoff = all pairs, inner/outer = 0/0, eps = 0.001, linear scale = 1, angular scale = 0)
  Impulse metric correction: disabled  (internal load constraint = disabled)
  Impulse variational defect probe: disabled
  Impulse quadratic pressure: disabled  (scale = 1)
  Added-mass stab:   disabled
  Exact BEM geometry: disabled
  Exact singular BEM: disabled
  Legacy singular SLP diagnostic: disabled
  Phi-dot blend:     0 (off)

  Solver guidance:
    - Strong coupling: use for stiff close-coupled runs; slower but more implicit.
    - Impulse scheme: use when impulse/momentum conservation or KE drift is the focus. Recommended.
    - Added-mass stab: use for higher mesh counts (ndiv > 3) to preserve stability - deprecated.
================================================
Solver starting - good luck!

Initial state:
  Body  1
    density:          1.000000
    shape axes ratio: (1.000000, 0.991054, 0.991054)
    initial KE ratio: 0.500000
    position:         (-4.000000, 0.000000, 0.000000)
    velocity:         (5.143687, -1.125024, -1.928182)
    angular velocity: (5.741256, -2.507131, -0.480300)
    orientation:      (w=-0.221745, i=0.891334, j=-0.223949, k=0.325882)
  Body  2
    density:          1.000000
    shape axes ratio: (1.000000, 0.991054, 0.991054)
    initial KE ratio: 0.500000
    position:         (4.000000, 0.000000, 0.000000)
    velocity:         (5.161176, -1.128849, -1.934738)
    angular velocity: (-1.805601, 5.072176, -3.239020)
    orientation:      (w=0.262938, i=-0.208627, j=-0.187707, k=-0.923095)

Preparing first step: implicit scheme, no bootstrap passes required.
First step may take longer than later steps.

First step completed in 0.256 s.

Step   100/2000    5.0% | t 5.000 | ETA 3m 29s | step 0.11s | KE 266.0152 | drift -1.50% | fluid 71.9094 | solid 194.1058
  Impulse FP iterations last/mean/max 8/7.92/8
Step   200/2000   10.0% | t 10.000 | ETA 3m 20s | step 0.11s | KE 263.7374 | drift -2.35% | fluid 71.8616 | solid 191.8758
  Impulse FP iterations last/mean/max 8/7.93/8
Step   300/2000   15.0% | t 15.000 | ETA 3m 9s | step 0.11s | KE 263.0372 | drift -2.61% | fluid 71.7321 | solid 191.3051
  Impulse FP iterations last/mean/max 8/7.92/8
Step   400/2000   20.0% | t 20.000 | ETA 2m 57s | step 0.09s | KE 263.7649 | drift -2.34% | fluid 71.8080 | solid 191.9569
  Impulse FP iterations last/mean/max 7/7.90/8
Step   500/2000   25.0% | t 25.000 | ETA 2m 46s | step 0.10s | KE 265.7913 | drift -1.59% | fluid 71.7328 | solid 194.0585
  Impulse FP iterations last/mean/max 8/7.90/8
Step   600/2000   30.0% | t 30.000 | ETA 2m 34s | step 0.10s | KE 269.0821 | drift -0.37% | fluid 71.9073 | solid 197.1748
  Impulse FP iterations last/mean/max 8/7.91/8
Step   700/2000   35.0% | t 35.000 | ETA 2m 20s | step 0.09s | KE 273.6877 | drift +1.34% | fluid 71.8752 | solid 201.8126
  Impulse FP iterations last/mean/max 8/7.91/8
Step   800/2000   40.0% | t 40.000 | ETA 2m 8s | step 0.10s | KE 279.8151 | drift +3.61% | fluid 71.9088 | solid 207.9063
  Impulse FP iterations last/mean/max 8/7.92/8
Step   900/2000   45.0% | t 45.000 | ETA 1m 56s | step 0.10s | KE 287.5265 | drift +6.46% | fluid 71.9466 | solid 215.5799
  Impulse FP iterations last/mean/max 8/7.91/8
Step  1000/2000   50.0% | t 50.000 | ETA 1m 46s | step 0.11s | KE 296.5589 | drift +9.81% | fluid 71.8772 | solid 224.6818
  Impulse FP iterations last/mean/max 8/7.91/8
Step  1100/2000   55.0% | t 55.000 | ETA 1m 35s | step 0.11s | KE 306.5978 | drift +13.52% | fluid 71.8316 | solid 234.7662
  Impulse FP iterations last/mean/max 8/7.90/8
Step  1200/2000   60.0% | t 60.000 | ETA 1m 25s | step 0.10s | KE 317.4760 | drift +17.55% | fluid 71.8185 | solid 245.6576
  Impulse FP iterations last/mean/max 7/7.90/8
Step  1300/2000   65.0% | t 65.000 | ETA 1m 14s | step 0.12s | KE 329.0319 | drift +21.83% | fluid 71.8192 | solid 257.2127
  Impulse FP iterations last/mean/max 8/7.89/8
Step  1400/2000   70.0% | t 70.000 | ETA 1m 4s | step 0.09s | KE 341.2312 | drift +26.35% | fluid 71.8419 | solid 269.3892
  Impulse FP iterations last/mean/max 7/7.89/8
Step  1500/2000   75.0% | t 75.000 | ETA 53s | step 0.11s | KE 353.9490 | drift +31.06% | fluid 71.8625 | solid 282.0865
  Impulse FP iterations last/mean/max 8/7.88/8
Step  1600/2000   80.0% | t 80.000 | ETA 43s | step 0.12s | KE 367.1387 | drift +35.94% | fluid 71.9055 | solid 295.2332
  Impulse FP iterations last/mean/max 8/7.87/8
Step  1700/2000   85.0% | t 85.000 | ETA 32s | step 0.12s | KE 380.7543 | drift +40.98% | fluid 71.9014 | solid 308.8529
  Impulse FP iterations last/mean/max 8/7.87/8
Step  1800/2000   90.0% | t 90.000 | ETA 21s | step 0.10s | KE 394.7220 | drift +46.15% | fluid 71.7840 | solid 322.9380
  Impulse FP iterations last/mean/max 7/7.87/8
Step  1900/2000   95.0% | t 95.000 | ETA 10s | step 0.11s | KE 408.9288 | drift +51.41% | fluid 72.0111 | solid 336.9177
  Impulse FP iterations last/mean/max 8/7.86/8
Solver finished successfully - good job!
Results saved successfully.

================== Run summary ==================
  Bodies:            2
  Triangles / nodes: 256 / 516
  Timesteps:         2000  (dt = 0.05)
  Simulated time:    0 -> 100
  First-step setup:  0.256 s
  Mean time/step:    0.1070 s  (excl. first step)
  Total wall time:   3m 34s
  Impulse FP iters last/mean/max: 8 / 7.854 / 8
  Approx impulse solves/step:     7.854
  Impulse start cache hits/direct: 1999 / 1
  Impulse global drift P/H:       1.195898e-8 / 5.062315e-2
  Impulse per-body max drift P/H: 1.397221e-8 / 8.274477e-3
  CPU cores:         256 available, 8 Rayon worker thread(s)
  Started:           2026-06-24 02:26:39
  Finished:          2026-06-24 02:30:13
  Output file:       /work/e643/e643/shared/multi_ellip/studies/departing_sphericity_sweep/runs/spheroid_prolate/homogeneous/spheroid_prolate_homogeneous_eps0p003_rho1_E0p5_sep8_run07_impulse_noproj/multiple_body_complete.dat
================================================
