
================ Simulation setup ================
  Run label:         /work/e643/e643/shared/multi_ellip/studies/two_body_paper_sweeps/runs/spheroid_1_0p7_0p7/spheroid_1_0p7_0p7_rho1_E0p55_sep11_run03_impulse_noproj/
  Started:           2026-06-24 01:34:38
  Input file:        /work/e643/e643/shared/multi_ellip/studies/two_body_paper_sweeps/runs/spheroid_1_0p7_0p7/spheroid_1_0p7_0p7_rho1_E0p55_sep11_run03_impulse_noproj/input.txt
  Output file:       /work/e643/e643/shared/multi_ellip/studies/two_body_paper_sweeps/runs/spheroid_1_0p7_0p7/spheroid_1_0p7_0p7_rho1_E0p55_sep11_run03_impulse_noproj/multiple_body_complete.dat
  Bodies:            2
  Fluid density:     1
  Mesh:              ndiv 2 -> 256 triangles / 516 nodes
  Simulated time:    0 -> 100  (dt = 0.05, ~2000 steps)
  Output cadence:    every 1 step(s)
  Output rows:       ~2001
  Progress cadence:  every 100 step(s)
  CPU cores:         256 available, 8 Rayon worker thread(s)
  Strong coupling:   disabled
  Impulse scheme:    enabled
  Hamiltonian step:  disabled
  Hamiltonian midpt: disabled
  Variational step:  disabled
  Energy projection: disabled
  Projection particular metric: Euclidean
  Fluid KE gradient: disabled  (eps = 0.001, scale = 1, linear = 1, angular = 1)
  Fluid KE discrete gradient: disabled
  Impulse pair metric correction: disabled  (mode = pair discrete-gradient, cutoff = all pairs, inner/outer = 0/0, eps = 0.001, linear scale = 1, angular scale = 0)
  Impulse metric correction: disabled  (internal load constraint = disabled)
  Impulse variational defect probe: disabled
  Impulse quadratic pressure: disabled  (scale = 1)
  Added-mass stab:   disabled
  Exact BEM geometry: disabled
  Exact singular BEM: disabled
  Legacy singular SLP diagnostic: disabled
  Phi-dot blend:     0 (off)

  Solver guidance:
    - Strong coupling: use for stiff close-coupled runs; slower but more implicit.
    - Impulse scheme: use when impulse/momentum conservation or KE drift is the focus. Recommended.
    - Added-mass stab: use for higher mesh counts (ndiv > 3) to preserve stability - deprecated.
================================================
Solver starting - good luck!

Initial state:
  Body  1
    density:          1.000000
    shape axes ratio: (1.000000, 0.700000, 0.700000)
    initial KE ratio: 0.550000
    position:         (-5.500000, 0.000000, 0.000000)
    velocity:         (2.869178, 0.146039, -4.691649)
    angular velocity: (-3.729402, -1.596338, 4.798091)
    orientation:      (w=-0.545640, i=-0.540709, j=0.290795, k=0.570394)
  Body  2
    density:          1.000000
    shape axes ratio: (1.000000, 0.700000, 0.700000)
    initial KE ratio: 0.550000
    position:         (5.500000, 0.000000, 0.000000)
    velocity:         (2.938340, 0.149559, -4.804741)
    angular velocity: (2.993250, -4.942666, -2.467575)
    orientation:      (w=0.503997, i=0.734573, j=0.282436, k=0.355837)

Preparing first step: implicit scheme, no bootstrap passes required.
First step may take longer than later steps.

First step completed in 0.242 s.

Step   100/2000    5.0% | t 5.000 | ETA 4m 5s | step 0.14s | KE 296.6942 | drift +0.09% | fluid 89.3019 | solid 207.3922
  Impulse FP iterations last/mean/max 10/9.76/10
Step   200/2000   10.0% | t 10.000 | ETA 4m 2s | step 0.13s | KE 296.7432 | drift +0.10% | fluid 88.1609 | solid 208.5823
  Impulse FP iterations last/mean/max 10/9.79/10
Step   300/2000   15.0% | t 15.000 | ETA 3m 52s | step 0.14s | KE 296.6505 | drift +0.07% | fluid 87.7954 | solid 208.8551
  Impulse FP iterations last/mean/max 10/9.77/10
Step   400/2000   20.0% | t 20.000 | ETA 3m 39s | step 0.13s | KE 296.4114 | drift -0.01% | fluid 89.1199 | solid 207.2915
  Impulse FP iterations last/mean/max 10/9.76/10
Step   500/2000   25.0% | t 25.000 | ETA 3m 24s | step 0.12s | KE 296.1876 | drift -0.08% | fluid 90.2726 | solid 205.9150
  Impulse FP iterations last/mean/max 9/9.76/10
Step   600/2000   30.0% | t 30.000 | ETA 3m 8s | step 0.12s | KE 296.1226 | drift -0.11% | fluid 89.7237 | solid 206.3989
  Impulse FP iterations last/mean/max 9/9.75/10
Step   700/2000   35.0% | t 35.000 | ETA 2m 53s | step 0.14s | KE 296.1564 | drift -0.10% | fluid 88.2822 | solid 207.8742
  Impulse FP iterations last/mean/max 10/9.73/11
Step   800/2000   40.0% | t 40.000 | ETA 2m 41s | step 0.14s | KE 296.2310 | drift -0.07% | fluid 86.4885 | solid 209.7425
  Impulse FP iterations last/mean/max 10/9.72/11
Step   900/2000   45.0% | t 45.000 | ETA 2m 28s | step 0.14s | KE 296.3453 | drift -0.03% | fluid 84.3870 | solid 211.9584
  Impulse FP iterations last/mean/max 10/9.71/11
Step  1000/2000   50.0% | t 50.000 | ETA 2m 14s | step 0.15s | KE 296.3953 | drift -0.01% | fluid 83.3499 | solid 213.0453
  Impulse FP iterations last/mean/max 10/9.70/11
Step  1100/2000   55.0% | t 55.000 | ETA 2m 1s | step 0.15s | KE 296.3400 | drift -0.03% | fluid 84.0151 | solid 212.3249
  Impulse FP iterations last/mean/max 10/9.70/11
Step  1200/2000   60.0% | t 60.000 | ETA 1m 48s | step 0.15s | KE 296.2861 | drift -0.05% | fluid 85.2674 | solid 211.0187
  Impulse FP iterations last/mean/max 10/9.70/11
Step  1300/2000   65.0% | t 65.000 | ETA 1m 34s | step 0.14s | KE 296.2298 | drift -0.07% | fluid 87.0401 | solid 209.1898
  Impulse FP iterations last/mean/max 10/9.69/11
Step  1400/2000   70.0% | t 70.000 | ETA 1m 21s | step 0.13s | KE 296.1369 | drift -0.10% | fluid 89.4664 | solid 206.6705
  Impulse FP iterations last/mean/max 9/9.69/11
Step  1500/2000   75.0% | t 75.000 | ETA 1m 7s | step 0.13s | KE 296.1558 | drift -0.10% | fluid 90.6111 | solid 205.5447
  Impulse FP iterations last/mean/max 9/9.70/11
Step  1600/2000   80.0% | t 80.000 | ETA 54s | step 0.14s | KE 296.3431 | drift -0.03% | fluid 89.5269 | solid 206.8162
  Impulse FP iterations last/mean/max 10/9.70/11
Step  1700/2000   85.0% | t 85.000 | ETA 40s | step 0.14s | KE 296.4870 | drift +0.02% | fluid 88.2771 | solid 208.2099
  Impulse FP iterations last/mean/max 10/9.70/11
Step  1800/2000   90.0% | t 90.000 | ETA 27s | step 0.14s | KE 296.4903 | drift +0.02% | fluid 88.0717 | solid 208.4186
  Impulse FP iterations last/mean/max 10/9.70/11
Step  1900/2000   95.0% | t 95.000 | ETA 13s | step 0.13s | KE 296.4276 | drift -0.00% | fluid 88.3694 | solid 208.0582
  Impulse FP iterations last/mean/max 10/9.70/11
Solver finished successfully - good job!
Results saved successfully.

================== Run summary ==================
  Bodies:            2
  Triangles / nodes: 256 / 516
  Timesteps:         2000  (dt = 0.05)
  Simulated time:    0 -> 100
  First-step setup:  0.242 s
  Mean time/step:    0.1361 s  (excl. first step)
  Total wall time:   4m 32s
  Impulse FP iters last/mean/max: 8 / 9.697 / 11
  Approx impulse solves/step:     9.698
  Impulse start cache hits/direct: 1999 / 1
  Impulse global drift P/H:       1.463219e-8 / 2.094409e-2
  Impulse per-body max drift P/H: 1.563202e-8 / 9.028023e-4
  CPU cores:         256 available, 8 Rayon worker thread(s)
  Started:           2026-06-24 01:34:38
  Finished:          2026-06-24 01:39:10
  Output file:       /work/e643/e643/shared/multi_ellip/studies/two_body_paper_sweeps/runs/spheroid_1_0p7_0p7/spheroid_1_0p7_0p7_rho1_E0p55_sep11_run03_impulse_noproj/multiple_body_complete.dat
================================================
