
================ Simulation setup ================
  Run label:         /work/e643/e643/shared/multi_ellip/studies/two_body_paper_sweeps/runs/ellipsoid_1_0p8_0p6/ellipsoid_1_0p8_0p6_rho10_E4_sep11_run01_impulse_noproj/
  Started:           2026-06-22 19:23:16
  Input file:        /work/e643/e643/shared/multi_ellip/studies/two_body_paper_sweeps/runs/ellipsoid_1_0p8_0p6/ellipsoid_1_0p8_0p6_rho10_E4_sep11_run01_impulse_noproj/input.txt
  Output file:       /work/e643/e643/shared/multi_ellip/studies/two_body_paper_sweeps/runs/ellipsoid_1_0p8_0p6/ellipsoid_1_0p8_0p6_rho10_E4_sep11_run01_impulse_noproj/multiple_body_complete.dat
  Bodies:            2
  Fluid density:     1
  Mesh:              ndiv 2 -> 256 triangles / 516 nodes
  Simulated time:    0 -> 100  (dt = 0.05, ~2000 steps)
  Output cadence:    every 1 step(s)
  Output rows:       ~2001
  Progress cadence:  every 100 step(s)
  CPU cores:         256 available, 8 Rayon worker thread(s)
  Strong coupling:   disabled
  Impulse scheme:    enabled
  Hamiltonian step:  disabled
  Hamiltonian midpt: disabled
  Variational step:  disabled
  Energy projection: disabled
  Projection particular metric: Euclidean
  Fluid KE gradient: disabled  (eps = 0.001, scale = 1, linear = 1, angular = 1)
  Fluid KE discrete gradient: disabled
  Impulse pair metric correction: disabled  (mode = pair discrete-gradient, cutoff = all pairs, inner/outer = 0/0, eps = 0.001, linear scale = 1, angular scale = 0)
  Impulse metric correction: disabled  (internal load constraint = disabled)
  Impulse variational defect probe: disabled
  Impulse quadratic pressure: disabled  (scale = 1)
  Added-mass stab:   disabled
  Exact BEM geometry: disabled
  Exact singular BEM: disabled
  Legacy singular SLP diagnostic: disabled
  Phi-dot blend:     0 (off)

  Solver guidance:
    - Strong coupling: use for stiff close-coupled runs; slower but more implicit.
    - Impulse scheme: use when impulse/momentum conservation or KE drift is the focus. Recommended.
    - Added-mass stab: use for higher mesh counts (ndiv > 3) to preserve stability - deprecated.
================================================
Solver starting - good luck!

Initial state:
  Body  1
    density:          10.000000
    shape axes ratio: (1.000000, 0.800000, 0.600000)
    initial KE ratio: 4.000000
    position:         (-5.500000, 0.000000, 0.000000)
    velocity:         (-0.190240, 1.112026, -1.789672)
    angular velocity: (-2.191675, -4.925818, -3.226654)
    orientation:      (w=0.447214, i=0.894427, j=0.000000, k=0.000000)
  Body  2
    density:          10.000000
    shape axes ratio: (1.000000, 0.800000, 0.600000)
    initial KE ratio: 4.000000
    position:         (5.500000, 0.000000, 0.000000)
    velocity:         (-0.198122, 1.158095, -1.863814)
    angular velocity: (0.621130, 4.217354, 4.615901)
    orientation:      (w=0.707107, i=0.000000, j=0.707107, k=0.000000)

Preparing first step: implicit scheme, no bootstrap passes required.
First step may take longer than later steps.

First step completed in 7.429 s.

Step   100/2000    5.0% | t 5.000 | ETA 2m 38s | step 0.09s | KE 945.8788 | drift -0.00% | fluid 12.8646 | solid 933.0142
  Impulse FP iterations last/mean/max 7/7.11/8
Step   200/2000   10.0% | t 10.000 | ETA 2m 32s | step 0.09s | KE 945.8626 | drift -0.00% | fluid 14.1526 | solid 931.7101
  Impulse FP iterations last/mean/max 7/7.12/8
Step   300/2000   15.0% | t 15.000 | ETA 2m 28s | step 0.09s | KE 945.8881 | drift -0.00% | fluid 14.6890 | solid 931.1990
  Impulse FP iterations last/mean/max 7/7.11/8
Step   400/2000   20.0% | t 20.000 | ETA 2m 23s | step 0.09s | KE 945.8554 | drift -0.00% | fluid 14.2094 | solid 931.6460
  Impulse FP iterations last/mean/max 7/7.10/8
Step   500/2000   25.0% | t 25.000 | ETA 2m 16s | step 0.10s | KE 945.7870 | drift -0.01% | fluid 18.5738 | solid 927.2132
  Impulse FP iterations last/mean/max 7/7.10/8
Step   600/2000   30.0% | t 30.000 | ETA 2m 8s | step 0.10s | KE 945.8804 | drift -0.00% | fluid 14.5514 | solid 931.3291
  Impulse FP iterations last/mean/max 7/7.10/8
Step   700/2000   35.0% | t 35.000 | ETA 1m 59s | step 0.08s | KE 945.9297 | drift +0.00% | fluid 14.5969 | solid 931.3327
  Impulse FP iterations last/mean/max 7/7.10/8
Step   800/2000   40.0% | t 40.000 | ETA 1m 51s | step 0.10s | KE 945.8337 | drift -0.01% | fluid 17.2635 | solid 928.5702
  Impulse FP iterations last/mean/max 8/7.10/8
Step   900/2000   45.0% | t 45.000 | ETA 1m 42s | step 0.09s | KE 945.8392 | drift -0.01% | fluid 15.6329 | solid 930.2062
  Impulse FP iterations last/mean/max 7/7.10/8
Step  1000/2000   50.0% | t 50.000 | ETA 1m 33s | step 0.10s | KE 945.9538 | drift +0.01% | fluid 14.5777 | solid 931.3761
  Impulse FP iterations last/mean/max 7/7.10/8
Step  1100/2000   55.0% | t 55.000 | ETA 1m 24s | step 0.10s | KE 945.9320 | drift +0.00% | fluid 13.0093 | solid 932.9226
  Impulse FP iterations last/mean/max 7/7.10/8
Step  1200/2000   60.0% | t 60.000 | ETA 1m 15s | step 0.09s | KE 945.7926 | drift -0.01% | fluid 17.9719 | solid 927.8207
  Impulse FP iterations last/mean/max 7/7.10/8
Step  1300/2000   65.0% | t 65.000 | ETA 1m 6s | step 0.10s | KE 945.8509 | drift -0.01% | fluid 15.7967 | solid 930.0542
  Impulse FP iterations last/mean/max 7/7.11/8
Step  1400/2000   70.0% | t 70.000 | ETA 56s | step 0.11s | KE 945.9265 | drift +0.00% | fluid 12.8050 | solid 933.1214
  Impulse FP iterations last/mean/max 8/7.11/8
Step  1500/2000   75.0% | t 75.000 | ETA 47s | step 0.11s | KE 945.8533 | drift -0.00% | fluid 16.2122 | solid 929.6411
  Impulse FP iterations last/mean/max 7/7.11/8
Step  1600/2000   80.0% | t 80.000 | ETA 38s | step 0.10s | KE 945.8698 | drift -0.00% | fluid 13.5878 | solid 932.2821
  Impulse FP iterations last/mean/max 7/7.11/8
Step  1700/2000   85.0% | t 85.000 | ETA 28s | step 0.09s | KE 945.9389 | drift +0.00% | fluid 14.1317 | solid 931.8073
  Impulse FP iterations last/mean/max 7/7.11/8
Step  1800/2000   90.0% | t 90.000 | ETA 19s | step 0.10s | KE 945.9342 | drift +0.00% | fluid 13.3626 | solid 932.5715
  Impulse FP iterations last/mean/max 7/7.11/8
Step  1900/2000   95.0% | t 95.000 | ETA 9s | step 0.10s | KE 945.9160 | drift +0.00% | fluid 13.9034 | solid 932.0126
  Impulse FP iterations last/mean/max 7/7.11/8
Solver finished successfully - good job!
Results saved successfully.

================== Run summary ==================
  Bodies:            2
  Triangles / nodes: 256 / 516
  Timesteps:         2000  (dt = 0.05)
  Simulated time:    0 -> 100
  First-step setup:  7.429 s
  Mean time/step:    0.0953 s  (excl. first step)
  Total wall time:   3m 18s
  Impulse FP iters last/mean/max: 7 / 7.111 / 8
  Approx impulse solves/step:     7.111
  Impulse start cache hits/direct: 1999 / 1
  Impulse global drift P/H:       5.852825e-9 / 2.300642e-2
  Impulse per-body max drift P/H: 9.591087e-9 / 9.924929e-4
  CPU cores:         256 available, 8 Rayon worker thread(s)
  Started:           2026-06-22 19:23:16
  Finished:          2026-06-22 19:26:35
  Output file:       /work/e643/e643/shared/multi_ellip/studies/two_body_paper_sweeps/runs/ellipsoid_1_0p8_0p6/ellipsoid_1_0p8_0p6_rho10_E4_sep11_run01_impulse_noproj/multiple_body_complete.dat
================================================
