
================ Simulation setup ================
  Run label:         /work/e643/e643/shared/multi_ellip/studies/two_body_paper_sweeps/runs/ellipsoid_1_0p8_0p6/ellipsoid_1_0p8_0p6_rho10_E0p55_sep8_run04_impulse_noproj/
  Started:           2026-06-24 01:17:40
  Input file:        /work/e643/e643/shared/multi_ellip/studies/two_body_paper_sweeps/runs/ellipsoid_1_0p8_0p6/ellipsoid_1_0p8_0p6_rho10_E0p55_sep8_run04_impulse_noproj/input.txt
  Output file:       /work/e643/e643/shared/multi_ellip/studies/two_body_paper_sweeps/runs/ellipsoid_1_0p8_0p6/ellipsoid_1_0p8_0p6_rho10_E0p55_sep8_run04_impulse_noproj/multiple_body_complete.dat
  Bodies:            2
  Fluid density:     1
  Mesh:              ndiv 2 -> 256 triangles / 516 nodes
  Simulated time:    0 -> 100  (dt = 0.05, ~2000 steps)
  Output cadence:    every 1 step(s)
  Output rows:       ~2001
  Progress cadence:  every 100 step(s)
  CPU cores:         256 available, 8 Rayon worker thread(s)
  Strong coupling:   disabled
  Impulse scheme:    enabled
  Hamiltonian step:  disabled
  Hamiltonian midpt: disabled
  Variational step:  disabled
  Energy projection: disabled
  Projection particular metric: Euclidean
  Fluid KE gradient: disabled  (eps = 0.001, scale = 1, linear = 1, angular = 1)
  Fluid KE discrete gradient: disabled
  Impulse pair metric correction: disabled  (mode = pair discrete-gradient, cutoff = all pairs, inner/outer = 0/0, eps = 0.001, linear scale = 1, angular scale = 0)
  Impulse metric correction: disabled  (internal load constraint = disabled)
  Impulse variational defect probe: disabled
  Impulse quadratic pressure: disabled  (scale = 1)
  Added-mass stab:   disabled
  Exact BEM geometry: disabled
  Exact singular BEM: disabled
  Legacy singular SLP diagnostic: disabled
  Phi-dot blend:     0 (off)

  Solver guidance:
    - Strong coupling: use for stiff close-coupled runs; slower but more implicit.
    - Impulse scheme: use when impulse/momentum conservation or KE drift is the focus. Recommended.
    - Added-mass stab: use for higher mesh counts (ndiv > 3) to preserve stability - deprecated.
================================================
Solver starting - good luck!

Initial state:
  Body  1
    density:          10.000000
    shape axes ratio: (1.000000, 0.800000, 0.600000)
    initial KE ratio: 0.550000
    position:         (-4.000000, 0.000000, 0.000000)
    velocity:         (2.397131, 1.279717, -4.683266)
    angular velocity: (3.735370, 4.777141, 1.644492)
    orientation:      (w=-0.784186, i=-0.508764, j=-0.291659, k=0.202844)
  Body  2
    density:          10.000000
    shape axes ratio: (1.000000, 0.800000, 0.600000)
    initial KE ratio: 0.550000
    position:         (4.000000, 0.000000, 0.000000)
    velocity:         (2.674360, 1.427716, -5.224888)
    angular velocity: (1.833066, -1.960574, -5.681059)
    orientation:      (w=-0.689493, i=-0.253147, j=0.546062, k=-0.402905)

Preparing first step: implicit scheme, no bootstrap passes required.
First step may take longer than later steps.

First step completed in 6.974 s.

Step   100/2000    5.0% | t 5.000 | ETA 2m 49s | step 0.09s | KE 2115.2391 | drift -0.16% | fluid 76.4350 | solid 2038.8041
  Impulse FP iterations last/mean/max 7/7.11/8
Step   200/2000   10.0% | t 10.000 | ETA 2m 43s | step 0.09s | KE 2111.7109 | drift -0.33% | fluid 74.2946 | solid 2037.4163
  Impulse FP iterations last/mean/max 7/7.09/8
Step   300/2000   15.0% | t 15.000 | ETA 2m 39s | step 0.10s | KE 2109.6070 | drift -0.43% | fluid 87.4874 | solid 2022.1196
  Impulse FP iterations last/mean/max 7/7.11/8
Step   400/2000   20.0% | t 20.000 | ETA 2m 33s | step 0.10s | KE 2109.1712 | drift -0.45% | fluid 66.0819 | solid 2043.0893
  Impulse FP iterations last/mean/max 7/7.10/8
Step   500/2000   25.0% | t 25.000 | ETA 2m 25s | step 0.09s | KE 2109.1577 | drift -0.45% | fluid 65.2590 | solid 2043.8987
  Impulse FP iterations last/mean/max 7/7.09/8
Step   600/2000   30.0% | t 30.000 | ETA 2m 16s | step 0.10s | KE 2108.4665 | drift -0.48% | fluid 81.9177 | solid 2026.5488
  Impulse FP iterations last/mean/max 7/7.10/8
Step   700/2000   35.0% | t 35.000 | ETA 2m 7s | step 0.10s | KE 2108.2280 | drift -0.49% | fluid 84.2549 | solid 2023.9731
  Impulse FP iterations last/mean/max 7/7.10/8
Step   800/2000   40.0% | t 40.000 | ETA 1m 58s | step 0.10s | KE 2107.7867 | drift -0.51% | fluid 83.3488 | solid 2024.4379
  Impulse FP iterations last/mean/max 7/7.11/8
Step   900/2000   45.0% | t 45.000 | ETA 1m 49s | step 0.10s | KE 2107.9520 | drift -0.50% | fluid 87.4531 | solid 2020.4989
  Impulse FP iterations last/mean/max 7/7.11/8
Step  1000/2000   50.0% | t 50.000 | ETA 1m 39s | step 0.10s | KE 2108.2048 | drift -0.49% | fluid 76.4695 | solid 2031.7353
  Impulse FP iterations last/mean/max 7/7.11/8
Step  1100/2000   55.0% | t 55.000 | ETA 1m 29s | step 0.10s | KE 2108.4412 | drift -0.48% | fluid 65.8748 | solid 2042.5663
  Impulse FP iterations last/mean/max 7/7.11/8
Step  1200/2000   60.0% | t 60.000 | ETA 1m 19s | step 0.10s | KE 2108.4450 | drift -0.48% | fluid 61.7067 | solid 2046.7383
  Impulse FP iterations last/mean/max 7/7.11/8
Step  1300/2000   65.0% | t 65.000 | ETA 1m 9s | step 0.09s | KE 2107.6831 | drift -0.52% | fluid 90.5258 | solid 2017.1573
  Impulse FP iterations last/mean/max 7/7.11/8
Step  1400/2000   70.0% | t 70.000 | ETA 59s | step 0.09s | KE 2107.9137 | drift -0.51% | fluid 76.9858 | solid 2030.9279
  Impulse FP iterations last/mean/max 7/7.11/8
Step  1500/2000   75.0% | t 75.000 | ETA 50s | step 0.10s | KE 2107.5997 | drift -0.52% | fluid 84.2064 | solid 2023.3933
  Impulse FP iterations last/mean/max 7/7.11/8
Step  1600/2000   80.0% | t 80.000 | ETA 40s | step 0.10s | KE 2108.0392 | drift -0.50% | fluid 79.5479 | solid 2028.4913
  Impulse FP iterations last/mean/max 7/7.11/8
Step  1700/2000   85.0% | t 85.000 | ETA 30s | step 0.09s | KE 2108.3336 | drift -0.49% | fluid 73.0215 | solid 2035.3121
  Impulse FP iterations last/mean/max 7/7.11/8
Step  1800/2000   90.0% | t 90.000 | ETA 20s | step 0.10s | KE 2108.2344 | drift -0.49% | fluid 74.6824 | solid 2033.5520
  Impulse FP iterations last/mean/max 7/7.11/8
Step  1900/2000   95.0% | t 95.000 | ETA 10s | step 0.09s | KE 2108.2724 | drift -0.49% | fluid 65.0248 | solid 2043.2476
  Impulse FP iterations last/mean/max 7/7.11/8
Solver finished successfully - good job!
Results saved successfully.

================== Run summary ==================
  Bodies:            2
  Triangles / nodes: 256 / 516
  Timesteps:         2000  (dt = 0.05)
  Simulated time:    0 -> 100
  First-step setup:  6.974 s
  Mean time/step:    0.1003 s  (excl. first step)
  Total wall time:   3m 27s
  Impulse FP iters last/mean/max: 8 / 7.111 / 8
  Approx impulse solves/step:     7.111
  Impulse start cache hits/direct: 1999 / 1
  Impulse global drift P/H:       9.780362e-10 / 1.404955e-2
  Impulse per-body max drift P/H: 1.182406e-9 / 2.755426e-3
  CPU cores:         256 available, 8 Rayon worker thread(s)
  Started:           2026-06-24 01:17:40
  Finished:          2026-06-24 01:21:09
  Output file:       /work/e643/e643/shared/multi_ellip/studies/two_body_paper_sweeps/runs/ellipsoid_1_0p8_0p6/ellipsoid_1_0p8_0p6_rho10_E0p55_sep8_run04_impulse_noproj/multiple_body_complete.dat
================================================
