
================ Simulation setup ================
  Run label:         /work/e643/e643/shared/multi_ellip/studies/two_body_paper_sweeps/runs/spheroid_1_0p7_0p7/spheroid_1_0p7_0p7_rho0p03_E4_sep11_run01_impulse_noproj/
  Started:           2026-06-22 20:09:22
  Input file:        /work/e643/e643/shared/multi_ellip/studies/two_body_paper_sweeps/runs/spheroid_1_0p7_0p7/spheroid_1_0p7_0p7_rho0p03_E4_sep11_run01_impulse_noproj/input.txt
  Output file:       /work/e643/e643/shared/multi_ellip/studies/two_body_paper_sweeps/runs/spheroid_1_0p7_0p7/spheroid_1_0p7_0p7_rho0p03_E4_sep11_run01_impulse_noproj/multiple_body_complete.dat
  Bodies:            2
  Fluid density:     1
  Mesh:              ndiv 2 -> 256 triangles / 516 nodes
  Simulated time:    0 -> 100  (dt = 0.05, ~2000 steps)
  Output cadence:    every 1 step(s)
  Output rows:       ~2001
  Progress cadence:  every 100 step(s)
  CPU cores:         256 available, 8 Rayon worker thread(s)
  Strong coupling:   disabled
  Impulse scheme:    enabled
  Hamiltonian step:  disabled
  Hamiltonian midpt: disabled
  Variational step:  disabled
  Energy projection: disabled
  Projection particular metric: Euclidean
  Fluid KE gradient: disabled  (eps = 0.001, scale = 1, linear = 1, angular = 1)
  Fluid KE discrete gradient: disabled
  Impulse pair metric correction: disabled  (mode = pair discrete-gradient, cutoff = all pairs, inner/outer = 0/0, eps = 0.001, linear scale = 1, angular scale = 0)
  Impulse metric correction: disabled  (internal load constraint = disabled)
  Impulse variational defect probe: disabled
  Impulse quadratic pressure: disabled  (scale = 1)
  Added-mass stab:   disabled
  Exact BEM geometry: disabled
  Exact singular BEM: disabled
  Legacy singular SLP diagnostic: disabled
  Phi-dot blend:     0 (off)

  Solver guidance:
    - Strong coupling: use for stiff close-coupled runs; slower but more implicit.
    - Impulse scheme: use when impulse/momentum conservation or KE drift is the focus. Recommended.
    - Added-mass stab: use for higher mesh counts (ndiv > 3) to preserve stability - deprecated.
================================================
Solver starting - good luck!

Initial state:
  Body  1
    density:          0.030000
    shape axes ratio: (1.000000, 0.700000, 0.700000)
    initial KE ratio: 4.000000
    position:         (-5.500000, 0.000000, 0.000000)
    velocity:         (-1.654166, -1.141701, -0.290359)
    angular velocity: (-3.849659, -4.946426, 0.437507)
    orientation:      (w=0.447214, i=0.894427, j=0.000000, k=0.000000)
  Body  2
    density:          0.030000
    shape axes ratio: (1.000000, 0.700000, 0.700000)
    initial KE ratio: 4.000000
    position:         (5.500000, 0.000000, 0.000000)
    velocity:         (-1.765572, -1.218593, -0.309914)
    angular velocity: (0.907887, -0.530782, -6.194548)
    orientation:      (w=0.707107, i=0.000000, j=0.707107, k=0.000000)

Preparing first step: implicit scheme, no bootstrap passes required.
First step may take longer than later steps.

First step completed in 0.395 s.

Step   100/2000    5.0% | t 5.000 | ETA 8m 31s | step 0.27s | KE 15.4530 | drift +3.45% | fluid 12.4619 | solid 2.9911
  Impulse FP iterations last/mean/max 20/18.70/21
Step   200/2000   10.0% | t 10.000 | ETA 8m 10s | step 0.28s | KE 15.3370 | drift +2.67% | fluid 13.3412 | solid 1.9958
  Impulse FP iterations last/mean/max 19/18.88/22
Step   300/2000   15.0% | t 15.000 | ETA 8m 10s | step 0.36s | KE 75.8151 | drift +407.52% | fluid 16.2062 | solid 59.6090
  Impulse FP iterations last/mean/max 23/19.88/27
Step   400/2000   20.0% | t 20.000 | ETA 7m 57s | step 0.32s | KE 229.5606 | drift +1436.73% | fluid 12.1002 | solid 217.4603
  Impulse FP iterations last/mean/max 21/20.45/27
Step   500/2000   25.0% | t 25.000 | ETA 7m 21s | step 0.28s | KE 217.5048 | drift +1356.02% | fluid 12.0606 | solid 205.4442
  Impulse FP iterations last/mean/max 19/20.19/27
Step   600/2000   30.0% | t 30.000 | ETA 6m 46s | step 0.26s | KE 212.0434 | drift +1319.46% | fluid 12.0711 | solid 199.9723
  Impulse FP iterations last/mean/max 18/19.96/27
Step   700/2000   35.0% | t 35.000 | ETA 6m 13s | step 0.24s | KE 209.8024 | drift +1304.46% | fluid 12.1439 | solid 197.6585
  Impulse FP iterations last/mean/max 18/19.80/27
Step   800/2000   40.0% | t 40.000 | ETA 5m 42s | step 0.25s | KE 208.5489 | drift +1296.07% | fluid 12.0278 | solid 196.5211
  Impulse FP iterations last/mean/max 17/19.64/27
Step   900/2000   45.0% | t 45.000 | ETA 5m 11s | step 0.31s | KE 207.8096 | drift +1291.12% | fluid 12.1357 | solid 195.6739
  Impulse FP iterations last/mean/max 22/19.51/27
Step  1000/2000   50.0% | t 50.000 | ETA 4m 41s | step 0.23s | KE 207.3000 | drift +1287.71% | fluid 12.0351 | solid 195.2649
  Impulse FP iterations last/mean/max 16/19.40/27
Step  1100/2000   55.0% | t 55.000 | ETA 4m 11s | step 0.26s | KE 206.9599 | drift +1285.43% | fluid 12.1388 | solid 194.8211
  Impulse FP iterations last/mean/max 18/19.34/27
Step  1200/2000   60.0% | t 60.000 | ETA 3m 43s | step 0.26s | KE 206.7082 | drift +1283.75% | fluid 12.0960 | solid 194.6122
  Impulse FP iterations last/mean/max 18/19.30/27
Step  1300/2000   65.0% | t 65.000 | ETA 3m 15s | step 0.32s | KE 206.5411 | drift +1282.63% | fluid 12.0712 | solid 194.4699
  Impulse FP iterations last/mean/max 22/19.29/27
Step  1400/2000   70.0% | t 70.000 | ETA 2m 47s | step 0.32s | KE 206.4197 | drift +1281.82% | fluid 12.1275 | solid 194.2922
  Impulse FP iterations last/mean/max 22/19.32/27
Step  1500/2000   75.0% | t 75.000 | ETA 2m 19s | step 0.30s | KE 206.2948 | drift +1280.98% | fluid 12.0471 | solid 194.2477
  Impulse FP iterations last/mean/max 21/19.35/27
Step  1600/2000   80.0% | t 80.000 | ETA 1m 51s | step 0.29s | KE 206.2341 | drift +1280.58% | fluid 12.1738 | solid 194.0603
  Impulse FP iterations last/mean/max 21/19.38/27
Step  1700/2000   85.0% | t 85.000 | ETA 1m 23s | step 0.26s | KE 206.1688 | drift +1280.14% | fluid 12.0602 | solid 194.1086
  Impulse FP iterations last/mean/max 18/19.41/27
Step  1800/2000   90.0% | t 90.000 | ETA 55s | step 0.25s | KE 206.1523 | drift +1280.03% | fluid 12.1289 | solid 194.0234
  Impulse FP iterations last/mean/max 17/19.43/27
Step  1900/2000   95.0% | t 95.000 | ETA 27s | step 0.29s | KE 206.1153 | drift +1279.78% | fluid 12.0995 | solid 194.0158
  Impulse FP iterations last/mean/max 22/19.46/27
Solver finished successfully - good job!
Results saved successfully.

================== Run summary ==================
  Bodies:            2
  Triangles / nodes: 256 / 516
  Timesteps:         2000  (dt = 0.05)
  Simulated time:    0 -> 100
  First-step setup:  0.395 s
  Mean time/step:    0.2757 s  (excl. first step)
  Total wall time:   9m 11s
  Impulse FP iters last/mean/max: 21 / 19.498 / 27
  Approx impulse solves/step:     19.499
  Impulse start cache hits/direct: 1999 / 1
  Impulse global drift P/H:       2.598690e-8 / 1.162888e1
  Impulse per-body max drift P/H: 4.150254e-8 / 2.004023e0
  CPU cores:         256 available, 8 Rayon worker thread(s)
  Started:           2026-06-22 20:09:22
  Finished:          2026-06-22 20:18:33
  Output file:       /work/e643/e643/shared/multi_ellip/studies/two_body_paper_sweeps/runs/spheroid_1_0p7_0p7/spheroid_1_0p7_0p7_rho0p03_E4_sep11_run01_impulse_noproj/multiple_body_complete.dat
================================================
