
================ Simulation setup ================
  Run label:         /work/e643/e643/shared/multi_ellip/studies/departing_sphericity_sweep/runs/triaxial/homogeneous/triaxial_homogeneous_eps0_rho1_E0p5_sep8_run03_impulse_noproj/
  Started:           2026-06-24 02:23:18
  Input file:        /work/e643/e643/shared/multi_ellip/studies/departing_sphericity_sweep/runs/triaxial/homogeneous/triaxial_homogeneous_eps0_rho1_E0p5_sep8_run03_impulse_noproj/input.txt
  Output file:       /work/e643/e643/shared/multi_ellip/studies/departing_sphericity_sweep/runs/triaxial/homogeneous/triaxial_homogeneous_eps0_rho1_E0p5_sep8_run03_impulse_noproj/multiple_body_complete.dat
  Bodies:            2
  Fluid density:     1
  Mesh:              ndiv 2 -> 256 triangles / 516 nodes
  Simulated time:    0 -> 100  (dt = 0.05, ~2000 steps)
  Output cadence:    every 1 step(s)
  Output rows:       ~2001
  Progress cadence:  every 100 step(s)
  CPU cores:         256 available, 8 Rayon worker thread(s)
  Strong coupling:   disabled
  Impulse scheme:    enabled
  Hamiltonian step:  disabled
  Hamiltonian midpt: disabled
  Variational step:  disabled
  Energy projection: disabled
  Projection particular metric: Euclidean
  Fluid KE gradient: disabled  (eps = 0.001, scale = 1, linear = 1, angular = 1)
  Fluid KE discrete gradient: disabled
  Impulse pair metric correction: disabled  (mode = pair discrete-gradient, cutoff = all pairs, inner/outer = 0/0, eps = 0.001, linear scale = 1, angular scale = 0)
  Impulse metric correction: disabled  (internal load constraint = disabled)
  Impulse variational defect probe: disabled
  Impulse quadratic pressure: disabled  (scale = 1)
  Added-mass stab:   disabled
  Exact BEM geometry: disabled
  Exact singular BEM: disabled
  Legacy singular SLP diagnostic: disabled
  Phi-dot blend:     0 (off)

  Solver guidance:
    - Strong coupling: use for stiff close-coupled runs; slower but more implicit.
    - Impulse scheme: use when impulse/momentum conservation or KE drift is the focus. Recommended.
    - Added-mass stab: use for higher mesh counts (ndiv > 3) to preserve stability - deprecated.
================================================
Solver starting - good luck!

Initial state:
  Body  1
    density:          1.000000
    shape axes ratio: (1.000000, 1.000000, 1.000000)
    initial KE ratio: 0.500000
    position:         (-4.000000, 0.000000, 0.000000)
    velocity:         (1.627744, 3.301696, 4.246409)
    angular velocity: (-4.967130, 1.007863, 3.713523)
    orientation:      (w=-0.226965, i=-0.136394, j=0.493660, k=0.828362)
  Body  2
    density:          1.000000
    shape axes ratio: (1.000000, 1.000000, 1.000000)
    initial KE ratio: 0.500000
    position:         (4.000000, 0.000000, 0.000000)
    velocity:         (1.627744, 3.301696, 4.246409)
    angular velocity: (-2.302411, 5.841795, -0.225276)
    orientation:      (w=0.053818, i=-0.427301, j=-0.797445, k=-0.422609)

Preparing first step: implicit scheme, no bootstrap passes required.
First step may take longer than later steps.

First step completed in 0.296 s.

Step   100/2000    5.0% | t 5.000 | ETA 2m 25s | step 0.07s | KE 274.4813 | drift +1.29% | fluid 72.5573 | solid 201.9240
  Impulse FP iterations last/mean/max 5/5.49/6
Step   200/2000   10.0% | t 10.000 | ETA 2m 16s | step 0.07s | KE 278.9560 | drift +2.94% | fluid 72.5573 | solid 206.3986
  Impulse FP iterations last/mean/max 5/5.46/6
Step   300/2000   15.0% | t 15.000 | ETA 2m 8s | step 0.07s | KE 284.4215 | drift +4.95% | fluid 72.5573 | solid 211.8642
  Impulse FP iterations last/mean/max 5/5.42/6
Step   400/2000   20.0% | t 20.000 | ETA 2m 0s | step 0.07s | KE 290.8777 | drift +7.34% | fluid 72.5573 | solid 218.3203
  Impulse FP iterations last/mean/max 5/5.38/6
Step   500/2000   25.0% | t 25.000 | ETA 1m 52s | step 0.08s | KE 298.3246 | drift +10.08% | fluid 72.5574 | solid 225.7673
  Impulse FP iterations last/mean/max 6/5.36/6
Step   600/2000   30.0% | t 30.000 | ETA 1m 44s | step 0.09s | KE 306.7624 | drift +13.20% | fluid 72.5574 | solid 234.2051
  Impulse FP iterations last/mean/max 6/5.34/6
Step   700/2000   35.0% | t 35.000 | ETA 1m 36s | step 0.06s | KE 316.1912 | drift +16.68% | fluid 72.5573 | solid 243.6338
  Impulse FP iterations last/mean/max 5/5.31/6
Step   800/2000   40.0% | t 40.000 | ETA 1m 29s | step 0.07s | KE 326.6106 | drift +20.52% | fluid 72.5574 | solid 254.0533
  Impulse FP iterations last/mean/max 5/5.30/6
Step   900/2000   45.0% | t 45.000 | ETA 1m 21s | step 0.07s | KE 338.0209 | drift +24.73% | fluid 72.5574 | solid 265.4635
  Impulse FP iterations last/mean/max 5/5.28/6
Step  1000/2000   50.0% | t 50.000 | ETA 1m 13s | step 0.07s | KE 350.4221 | drift +29.31% | fluid 72.5574 | solid 277.8647
  Impulse FP iterations last/mean/max 5/5.27/6
Step  1100/2000   55.0% | t 55.000 | ETA 1m 5s | step 0.07s | KE 363.8142 | drift +34.25% | fluid 72.5574 | solid 291.2568
  Impulse FP iterations last/mean/max 5/5.26/6
Step  1200/2000   60.0% | t 60.000 | ETA 58s | step 0.06s | KE 378.1970 | drift +39.56% | fluid 72.5574 | solid 305.6396
  Impulse FP iterations last/mean/max 5/5.25/6
Step  1300/2000   65.0% | t 65.000 | ETA 50s | step 0.06s | KE 393.5707 | drift +45.23% | fluid 72.5574 | solid 321.0133
  Impulse FP iterations last/mean/max 5/5.24/6
Step  1400/2000   70.0% | t 70.000 | ETA 43s | step 0.07s | KE 409.9352 | drift +51.27% | fluid 72.5574 | solid 337.3778
  Impulse FP iterations last/mean/max 5/5.23/6
Step  1500/2000   75.0% | t 75.000 | ETA 36s | step 0.07s | KE 427.2905 | drift +57.67% | fluid 72.5574 | solid 354.7331
  Impulse FP iterations last/mean/max 5/5.22/6
Step  1600/2000   80.0% | t 80.000 | ETA 28s | step 0.07s | KE 445.6365 | drift +64.44% | fluid 72.5574 | solid 373.0790
  Impulse FP iterations last/mean/max 5/5.21/6
Step  1700/2000   85.0% | t 85.000 | ETA 21s | step 0.07s | KE 464.9731 | drift +71.58% | fluid 72.5574 | solid 392.4156
  Impulse FP iterations last/mean/max 5/5.21/6
Step  1800/2000   90.0% | t 90.000 | ETA 14s | step 0.08s | KE 485.3004 | drift +79.08% | fluid 72.5575 | solid 412.7429
  Impulse FP iterations last/mean/max 6/5.20/6
Step  1900/2000   95.0% | t 95.000 | ETA 7s | step 0.07s | KE 506.6184 | drift +86.95% | fluid 72.5575 | solid 434.0610
  Impulse FP iterations last/mean/max 5/5.20/6
Solver finished successfully - good job!
Results saved successfully.

================== Run summary ==================
  Bodies:            2
  Triangles / nodes: 256 / 516
  Timesteps:         2000  (dt = 0.05)
  Simulated time:    0 -> 100
  First-step setup:  0.296 s
  Mean time/step:    0.0720 s  (excl. first step)
  Total wall time:   2m 24s
  Impulse FP iters last/mean/max: 5 / 5.193 / 6
  Approx impulse solves/step:     5.193
  Impulse start cache hits/direct: 1999 / 1
  Impulse global drift P/H:       5.922833e-9 / 2.747020e-2
  Impulse per-body max drift P/H: 7.030565e-9 / 1.981089e-3
  CPU cores:         256 available, 8 Rayon worker thread(s)
  Started:           2026-06-24 02:23:18
  Finished:          2026-06-24 02:25:44
  Output file:       /work/e643/e643/shared/multi_ellip/studies/departing_sphericity_sweep/runs/triaxial/homogeneous/triaxial_homogeneous_eps0_rho1_E0p5_sep8_run03_impulse_noproj/multiple_body_complete.dat
================================================
