
================ Simulation setup ================
  Run label:         /work/e643/e643/shared/multi_ellip/studies/two_body_paper_sweeps/runs/spheroid_1_0p7_0p7/spheroid_1_0p7_0p7_rho1_E0p55_sep3_run05_impulse_noproj/
  Started:           2026-06-24 01:29:37
  Input file:        /work/e643/e643/shared/multi_ellip/studies/two_body_paper_sweeps/runs/spheroid_1_0p7_0p7/spheroid_1_0p7_0p7_rho1_E0p55_sep3_run05_impulse_noproj/input.txt
  Output file:       /work/e643/e643/shared/multi_ellip/studies/two_body_paper_sweeps/runs/spheroid_1_0p7_0p7/spheroid_1_0p7_0p7_rho1_E0p55_sep3_run05_impulse_noproj/multiple_body_complete.dat
  Bodies:            2
  Fluid density:     1
  Mesh:              ndiv 2 -> 256 triangles / 516 nodes
  Simulated time:    0 -> 100  (dt = 0.05, ~2000 steps)
  Output cadence:    every 1 step(s)
  Output rows:       ~2001
  Progress cadence:  every 100 step(s)
  CPU cores:         256 available, 8 Rayon worker thread(s)
  Strong coupling:   disabled
  Impulse scheme:    enabled
  Hamiltonian step:  disabled
  Hamiltonian midpt: disabled
  Variational step:  disabled
  Energy projection: disabled
  Projection particular metric: Euclidean
  Fluid KE gradient: disabled  (eps = 0.001, scale = 1, linear = 1, angular = 1)
  Fluid KE discrete gradient: disabled
  Impulse pair metric correction: disabled  (mode = pair discrete-gradient, cutoff = all pairs, inner/outer = 0/0, eps = 0.001, linear scale = 1, angular scale = 0)
  Impulse metric correction: disabled  (internal load constraint = disabled)
  Impulse variational defect probe: disabled
  Impulse quadratic pressure: disabled  (scale = 1)
  Added-mass stab:   disabled
  Exact BEM geometry: disabled
  Exact singular BEM: disabled
  Legacy singular SLP diagnostic: disabled
  Phi-dot blend:     0 (off)

  Solver guidance:
    - Strong coupling: use for stiff close-coupled runs; slower but more implicit.
    - Impulse scheme: use when impulse/momentum conservation or KE drift is the focus. Recommended.
    - Added-mass stab: use for higher mesh counts (ndiv > 3) to preserve stability - deprecated.
================================================
Solver starting - good luck!

Initial state:
  Body  1
    density:          1.000000
    shape axes ratio: (1.000000, 0.700000, 0.700000)
    initial KE ratio: 0.550000
    position:         (-1.500000, 0.000000, 0.000000)
    velocity:         (-2.487076, 3.337459, 3.008222)
    angular velocity: (-5.191380, -1.829786, 3.029831)
    orientation:      (w=0.837942, i=-0.344581, j=0.251671, k=-0.340264)
  Body  2
    density:          1.000000
    shape axes ratio: (1.000000, 0.700000, 0.700000)
    initial KE ratio: 0.550000
    position:         (1.500000, 0.000000, 0.000000)
    velocity:         (-2.506218, 3.363145, 3.031374)
    angular velocity: (-5.058128, -0.360571, 3.709952)
    orientation:      (w=-0.136230, i=0.379299, j=0.512711, k=0.758090)

Preparing first step: implicit scheme, no bootstrap passes required.
First step may take longer than later steps.

First step completed in 0.382 s.

Step   100/2000    5.0% | t 5.000 | ETA 5m 4s | step 0.15s | KE 408.3273 | drift +79.08% | fluid 56.6615 | solid 351.6658
  Impulse FP iterations last/mean/max 11/10.91/11
Step   200/2000   10.0% | t 10.000 | ETA 4m 38s | step 0.16s | KE 455.0970 | drift +99.60% | fluid 62.3695 | solid 392.7275
  Impulse FP iterations last/mean/max 11/10.56/11
Step   300/2000   15.0% | t 15.000 | ETA 4m 17s | step 0.15s | KE 467.3547 | drift +104.97% | fluid 62.6412 | solid 404.7135
  Impulse FP iterations last/mean/max 10/10.42/11
Step   400/2000   20.0% | t 20.000 | ETA 3m 59s | step 0.14s | KE 472.5217 | drift +107.24% | fluid 61.0479 | solid 411.4738
  Impulse FP iterations last/mean/max 10/10.34/11
Step   500/2000   25.0% | t 25.000 | ETA 3m 43s | step 0.14s | KE 474.3850 | drift +108.06% | fluid 61.1550 | solid 413.2300
  Impulse FP iterations last/mean/max 10/10.29/11
Step   600/2000   30.0% | t 30.000 | ETA 3m 27s | step 0.16s | KE 473.7210 | drift +107.76% | fluid 64.2389 | solid 409.4821
  Impulse FP iterations last/mean/max 11/10.27/11
Step   700/2000   35.0% | t 35.000 | ETA 3m 12s | step 0.14s | KE 475.1716 | drift +108.40% | fluid 63.1509 | solid 412.0207
  Impulse FP iterations last/mean/max 10/10.24/11
Step   800/2000   40.0% | t 40.000 | ETA 2m 57s | step 0.14s | KE 475.2638 | drift +108.44% | fluid 63.9836 | solid 411.2802
  Impulse FP iterations last/mean/max 10/10.22/11
Step   900/2000   45.0% | t 45.000 | ETA 2m 41s | step 0.15s | KE 474.1084 | drift +107.93% | fluid 66.6330 | solid 407.4753
  Impulse FP iterations last/mean/max 10/10.21/11
Step  1000/2000   50.0% | t 50.000 | ETA 2m 26s | step 0.14s | KE 475.7698 | drift +108.66% | fluid 63.3584 | solid 412.4114
  Impulse FP iterations last/mean/max 10/10.20/11
Step  1100/2000   55.0% | t 55.000 | ETA 2m 11s | step 0.12s | KE 474.7281 | drift +108.21% | fluid 62.9938 | solid 411.7343
  Impulse FP iterations last/mean/max 10/10.19/11
Step  1200/2000   60.0% | t 60.000 | ETA 1m 55s | step 0.13s | KE 475.1424 | drift +108.39% | fluid 59.9904 | solid 415.1520
  Impulse FP iterations last/mean/max 10/10.18/11
Step  1300/2000   65.0% | t 65.000 | ETA 1m 40s | step 0.12s | KE 476.1200 | drift +108.82% | fluid 57.3331 | solid 418.7869
  Impulse FP iterations last/mean/max 10/10.17/11
Step  1400/2000   70.0% | t 70.000 | ETA 1m 25s | step 0.12s | KE 474.4347 | drift +108.08% | fluid 60.9085 | solid 413.5262
  Impulse FP iterations last/mean/max 10/10.17/11
Step  1500/2000   75.0% | t 75.000 | ETA 1m 10s | step 0.12s | KE 475.5582 | drift +108.57% | fluid 60.8085 | solid 414.7497
  Impulse FP iterations last/mean/max 10/10.16/11
Step  1600/2000   80.0% | t 80.000 | ETA 55s | step 0.10s | KE 475.0513 | drift +108.35% | fluid 63.0533 | solid 411.9980
  Impulse FP iterations last/mean/max 10/10.16/11
Step  1700/2000   85.0% | t 85.000 | ETA 41s | step 0.10s | KE 474.1976 | drift +107.97% | fluid 65.1161 | solid 409.0815
  Impulse FP iterations last/mean/max 10/10.16/11
Step  1800/2000   90.0% | t 90.000 | ETA 27s | step 0.11s | KE 475.6701 | drift +108.62% | fluid 63.0275 | solid 412.6425
  Impulse FP iterations last/mean/max 10/10.15/11
Step  1900/2000   95.0% | t 95.000 | ETA 13s | step 0.10s | KE 474.3100 | drift +108.02% | fluid 65.5715 | solid 408.7385
  Impulse FP iterations last/mean/max 10/10.15/11
Solver finished successfully - good job!
Results saved successfully.

================== Run summary ==================
  Bodies:            2
  Triangles / nodes: 256 / 516
  Timesteps:         2000  (dt = 0.05)
  Simulated time:    0 -> 100
  First-step setup:  0.382 s
  Mean time/step:    0.1330 s  (excl. first step)
  Total wall time:   4m 26s
  Impulse FP iters last/mean/max: 10 / 10.149 / 11
  Approx impulse solves/step:     10.149
  Impulse start cache hits/direct: 1999 / 1
  Impulse global drift P/H:       4.307133e-8 / 4.326970e-1
  Impulse per-body max drift P/H: 7.457808e-8 / 2.098753e-1
  CPU cores:         256 available, 8 Rayon worker thread(s)
  Started:           2026-06-24 01:29:37
  Finished:          2026-06-24 01:34:04
  Output file:       /work/e643/e643/shared/multi_ellip/studies/two_body_paper_sweeps/runs/spheroid_1_0p7_0p7/spheroid_1_0p7_0p7_rho1_E0p55_sep3_run05_impulse_noproj/multiple_body_complete.dat
================================================
