
================ Simulation setup ================
  Run label:         /work/e643/e643/shared/multi_ellip/studies/departing_sphericity_sweep/runs/triaxial/heterogeneous_sphere/triaxial_heterogeneous_sphere_eps0p3_rho1_E0p5_sep8_run02_impulse_noproj/
  Started:           2026-06-24 02:46:58
  Input file:        /work/e643/e643/shared/multi_ellip/studies/departing_sphericity_sweep/runs/triaxial/heterogeneous_sphere/triaxial_heterogeneous_sphere_eps0p3_rho1_E0p5_sep8_run02_impulse_noproj/input.txt
  Output file:       /work/e643/e643/shared/multi_ellip/studies/departing_sphericity_sweep/runs/triaxial/heterogeneous_sphere/triaxial_heterogeneous_sphere_eps0p3_rho1_E0p5_sep8_run02_impulse_noproj/multiple_body_complete.dat
  Bodies:            2
  Fluid density:     1
  Mesh:              ndiv 2 -> 256 triangles / 516 nodes
  Simulated time:    0 -> 100  (dt = 0.05, ~2000 steps)
  Output cadence:    every 1 step(s)
  Output rows:       ~2001
  Progress cadence:  every 100 step(s)
  CPU cores:         256 available, 8 Rayon worker thread(s)
  Strong coupling:   disabled
  Impulse scheme:    enabled
  Hamiltonian step:  disabled
  Hamiltonian midpt: disabled
  Variational step:  disabled
  Energy projection: disabled
  Projection particular metric: Euclidean
  Fluid KE gradient: disabled  (eps = 0.001, scale = 1, linear = 1, angular = 1)
  Fluid KE discrete gradient: disabled
  Impulse pair metric correction: disabled  (mode = pair discrete-gradient, cutoff = all pairs, inner/outer = 0/0, eps = 0.001, linear scale = 1, angular scale = 0)
  Impulse metric correction: disabled  (internal load constraint = disabled)
  Impulse variational defect probe: disabled
  Impulse quadratic pressure: disabled  (scale = 1)
  Added-mass stab:   disabled
  Exact BEM geometry: disabled
  Exact singular BEM: disabled
  Legacy singular SLP diagnostic: disabled
  Phi-dot blend:     0 (off)

  Solver guidance:
    - Strong coupling: use for stiff close-coupled runs; slower but more implicit.
    - Impulse scheme: use when impulse/momentum conservation or KE drift is the focus. Recommended.
    - Added-mass stab: use for higher mesh counts (ndiv > 3) to preserve stability - deprecated.
================================================
Solver starting - good luck!

Initial state:
  Body  1
    density:          1.000000
    shape axes ratio: (1.000000, 0.769231, 0.591716)
    initial KE ratio: 0.500000
    position:         (-4.000000, 0.000000, 0.000000)
    velocity:         (-1.676043, 4.986123, 1.404348)
    angular velocity: (-5.153782, 2.673415, 2.402041)
    orientation:      (w=-0.322858, i=0.159123, j=0.359003, k=0.861139)
  Body  2
    density:          1.000000
    shape axes ratio: (1.000000, 1.000000, 1.000000)
    initial KE ratio: 0.500000
    position:         (4.000000, 0.000000, 0.000000)
    velocity:         (-1.730019, 5.146698, 1.449574)
    angular velocity: (5.673204, -0.398974, -2.670954)
    orientation:      (w=0.756110, i=-0.402256, j=-0.168242, k=0.488039)

Preparing first step: implicit scheme, no bootstrap passes required.
First step may take longer than later steps.

First step completed in 0.341 s.

Step   100/2000    5.0% | t 5.000 | ETA 4m 30s | step 0.14s | KE 281.4350 | drift -0.66% | fluid 83.9214 | solid 197.5136
  Impulse FP iterations last/mean/max 10/9.99/11
Step   200/2000   10.0% | t 10.000 | ETA 4m 5s | step 0.12s | KE 283.1919 | drift -0.04% | fluid 86.2233 | solid 196.9686
  Impulse FP iterations last/mean/max 10/10.01/11
Step   300/2000   15.0% | t 15.000 | ETA 3m 48s | step 0.14s | KE 289.7623 | drift +2.28% | fluid 82.5186 | solid 207.2437
  Impulse FP iterations last/mean/max 10/9.99/11
Step   400/2000   20.0% | t 20.000 | ETA 3m 38s | step 0.14s | KE 295.1187 | drift +4.17% | fluid 88.1089 | solid 207.0098
  Impulse FP iterations last/mean/max 10/9.98/11
Step   500/2000   25.0% | t 25.000 | ETA 3m 26s | step 0.14s | KE 298.8259 | drift +5.48% | fluid 82.2145 | solid 216.6114
  Impulse FP iterations last/mean/max 10/9.97/11
Step   600/2000   30.0% | t 30.000 | ETA 3m 14s | step 0.15s | KE 301.1497 | drift +6.30% | fluid 84.7024 | solid 216.4473
  Impulse FP iterations last/mean/max 10/9.96/11
Step   700/2000   35.0% | t 35.000 | ETA 3m 1s | step 0.14s | KE 302.2986 | drift +6.70% | fluid 85.7164 | solid 216.5822
  Impulse FP iterations last/mean/max 10/9.96/11
Step   800/2000   40.0% | t 40.000 | ETA 2m 48s | step 0.15s | KE 302.8440 | drift +6.89% | fluid 81.7383 | solid 221.1058
  Impulse FP iterations last/mean/max 10/9.96/11
Step   900/2000   45.0% | t 45.000 | ETA 2m 34s | step 0.14s | KE 303.1760 | drift +7.01% | fluid 88.1028 | solid 215.0731
  Impulse FP iterations last/mean/max 10/9.96/11
Step  1000/2000   50.0% | t 50.000 | ETA 2m 20s | step 0.14s | KE 303.6434 | drift +7.18% | fluid 82.2810 | solid 221.3623
  Impulse FP iterations last/mean/max 10/9.96/11
Step  1100/2000   55.0% | t 55.000 | ETA 2m 7s | step 0.15s | KE 303.7447 | drift +7.21% | fluid 87.0821 | solid 216.6626
  Impulse FP iterations last/mean/max 10/9.96/11
Step  1200/2000   60.0% | t 60.000 | ETA 1m 53s | step 0.14s | KE 304.2952 | drift +7.41% | fluid 83.6668 | solid 220.6283
  Impulse FP iterations last/mean/max 10/9.96/11
Step  1300/2000   65.0% | t 65.000 | ETA 1m 39s | step 0.15s | KE 303.9942 | drift +7.30% | fluid 86.3253 | solid 217.6690
  Impulse FP iterations last/mean/max 10/9.95/11
Step  1400/2000   70.0% | t 70.000 | ETA 1m 25s | step 0.15s | KE 304.1715 | drift +7.36% | fluid 83.9771 | solid 220.1944
  Impulse FP iterations last/mean/max 10/9.95/11
Step  1500/2000   75.0% | t 75.000 | ETA 1m 11s | step 0.14s | KE 304.2034 | drift +7.37% | fluid 85.9638 | solid 218.2396
  Impulse FP iterations last/mean/max 10/9.95/11
Step  1600/2000   80.0% | t 80.000 | ETA 56s | step 0.12s | KE 304.2804 | drift +7.40% | fluid 82.9756 | solid 221.3048
  Impulse FP iterations last/mean/max 10/9.95/11
Step  1700/2000   85.0% | t 85.000 | ETA 42s | step 0.12s | KE 304.6062 | drift +7.52% | fluid 85.0280 | solid 219.5782
  Impulse FP iterations last/mean/max 10/9.95/11
Step  1800/2000   90.0% | t 90.000 | ETA 27s | step 0.11s | KE 304.6380 | drift +7.53% | fluid 85.1293 | solid 219.5087
  Impulse FP iterations last/mean/max 10/9.95/11
Step  1900/2000   95.0% | t 95.000 | ETA 13s | step 0.10s | KE 304.4253 | drift +7.45% | fluid 81.5676 | solid 222.8577
  Impulse FP iterations last/mean/max 10/9.95/11
Solver finished successfully - good job!
Results saved successfully.

================== Run summary ==================
  Bodies:            2
  Triangles / nodes: 256 / 516
  Timesteps:         2000  (dt = 0.05)
  Simulated time:    0 -> 100
  First-step setup:  0.341 s
  Mean time/step:    0.1356 s  (excl. first step)
  Total wall time:   4m 31s
  Impulse FP iters last/mean/max: 10 / 9.947 / 11
  Approx impulse solves/step:     9.948
  Impulse start cache hits/direct: 1999 / 1
  Impulse global drift P/H:       6.119028e-9 / 6.770834e-3
  Impulse per-body max drift P/H: 9.962516e-9 / 1.236203e-3
  CPU cores:         256 available, 8 Rayon worker thread(s)
  Started:           2026-06-24 02:46:58
  Finished:          2026-06-24 02:51:30
  Output file:       /work/e643/e643/shared/multi_ellip/studies/departing_sphericity_sweep/runs/triaxial/heterogeneous_sphere/triaxial_heterogeneous_sphere_eps0p3_rho1_E0p5_sep8_run02_impulse_noproj/multiple_body_complete.dat
================================================
