
================ Simulation setup ================
  Run label:         /work/e643/e643/shared/multi_ellip/studies/two_body_paper_sweeps/runs/spheroid_1_0p7_0p7/spheroid_1_0p7_0p7_rho1_E1p5_sep8_run04_impulse_noproj/
  Started:           2026-06-24 01:34:39
  Input file:        /work/e643/e643/shared/multi_ellip/studies/two_body_paper_sweeps/runs/spheroid_1_0p7_0p7/spheroid_1_0p7_0p7_rho1_E1p5_sep8_run04_impulse_noproj/input.txt
  Output file:       /work/e643/e643/shared/multi_ellip/studies/two_body_paper_sweeps/runs/spheroid_1_0p7_0p7/spheroid_1_0p7_0p7_rho1_E1p5_sep8_run04_impulse_noproj/multiple_body_complete.dat
  Bodies:            2
  Fluid density:     1
  Mesh:              ndiv 2 -> 256 triangles / 516 nodes
  Simulated time:    0 -> 100  (dt = 0.05, ~2000 steps)
  Output cadence:    every 1 step(s)
  Output rows:       ~2001
  Progress cadence:  every 100 step(s)
  CPU cores:         256 available, 8 Rayon worker thread(s)
  Strong coupling:   disabled
  Impulse scheme:    enabled
  Hamiltonian step:  disabled
  Hamiltonian midpt: disabled
  Variational step:  disabled
  Energy projection: disabled
  Projection particular metric: Euclidean
  Fluid KE gradient: disabled  (eps = 0.001, scale = 1, linear = 1, angular = 1)
  Fluid KE discrete gradient: disabled
  Impulse pair metric correction: disabled  (mode = pair discrete-gradient, cutoff = all pairs, inner/outer = 0/0, eps = 0.001, linear scale = 1, angular scale = 0)
  Impulse metric correction: disabled  (internal load constraint = disabled)
  Impulse variational defect probe: disabled
  Impulse quadratic pressure: disabled  (scale = 1)
  Added-mass stab:   disabled
  Exact BEM geometry: disabled
  Exact singular BEM: disabled
  Legacy singular SLP diagnostic: disabled
  Phi-dot blend:     0 (off)

  Solver guidance:
    - Strong coupling: use for stiff close-coupled runs; slower but more implicit.
    - Impulse scheme: use when impulse/momentum conservation or KE drift is the focus. Recommended.
    - Added-mass stab: use for higher mesh counts (ndiv > 3) to preserve stability - deprecated.
================================================
Solver starting - good luck!

Initial state:
  Body  1
    density:          1.000000
    shape axes ratio: (1.000000, 0.700000, 0.700000)
    initial KE ratio: 1.500000
    position:         (-4.000000, 0.000000, 0.000000)
    velocity:         (1.448119, -3.193008, 0.436481)
    angular velocity: (1.114972, 1.106175, 6.083719)
    orientation:      (w=-0.401364, i=-0.443396, j=-0.113653, k=-0.793341)
  Body  2
    density:          1.000000
    shape axes ratio: (1.000000, 0.700000, 0.700000)
    initial KE ratio: 1.500000
    position:         (4.000000, 0.000000, 0.000000)
    velocity:         (1.336392, -2.946656, 0.402805)
    angular velocity: (4.262601, 4.180877, 1.956763)
    orientation:      (w=0.090997, i=-0.956833, j=-0.067765, k=-0.267578)

Preparing first step: implicit scheme, no bootstrap passes required.
First step may take longer than later steps.

First step completed in 0.300 s.

Step   100/2000    5.0% | t 5.000 | ETA 4m 24s | step 0.14s | KE 147.2124 | drift +2.65% | fluid 27.0209 | solid 120.1914
  Impulse FP iterations last/mean/max 10/9.91/10
Step   200/2000   10.0% | t 10.000 | ETA 4m 14s | step 0.14s | KE 151.2040 | drift +5.44% | fluid 28.4563 | solid 122.7477
  Impulse FP iterations last/mean/max 10/9.89/10
Step   300/2000   15.0% | t 15.000 | ETA 4m 0s | step 0.12s | KE 153.6656 | drift +7.15% | fluid 32.4104 | solid 121.2552
  Impulse FP iterations last/mean/max 9/9.88/10
Step   400/2000   20.0% | t 20.000 | ETA 3m 46s | step 0.14s | KE 154.8713 | drift +7.99% | fluid 32.1460 | solid 122.7253
  Impulse FP iterations last/mean/max 10/9.88/10
Step   500/2000   25.0% | t 25.000 | ETA 3m 31s | step 0.14s | KE 155.4786 | drift +8.42% | fluid 28.3948 | solid 127.0838
  Impulse FP iterations last/mean/max 10/9.87/10
Step   600/2000   30.0% | t 30.000 | ETA 3m 17s | step 0.13s | KE 155.5997 | drift +8.50% | fluid 31.6124 | solid 123.9873
  Impulse FP iterations last/mean/max 10/9.87/10
Step   700/2000   35.0% | t 35.000 | ETA 3m 3s | step 0.15s | KE 155.7077 | drift +8.58% | fluid 31.9364 | solid 123.7712
  Impulse FP iterations last/mean/max 10/9.86/10
Step   800/2000   40.0% | t 40.000 | ETA 2m 48s | step 0.15s | KE 155.8473 | drift +8.67% | fluid 28.9701 | solid 126.8772
  Impulse FP iterations last/mean/max 10/9.84/10
Step   900/2000   45.0% | t 45.000 | ETA 2m 34s | step 0.13s | KE 155.8328 | drift +8.66% | fluid 32.5053 | solid 123.3275
  Impulse FP iterations last/mean/max 9/9.84/10
Step  1000/2000   50.0% | t 50.000 | ETA 2m 20s | step 0.15s | KE 155.8413 | drift +8.67% | fluid 32.0529 | solid 123.7883
  Impulse FP iterations last/mean/max 10/9.82/10
Step  1100/2000   55.0% | t 55.000 | ETA 2m 6s | step 0.14s | KE 155.9592 | drift +8.75% | fluid 29.7882 | solid 126.1710
  Impulse FP iterations last/mean/max 10/9.81/10
Step  1200/2000   60.0% | t 60.000 | ETA 1m 52s | step 0.13s | KE 156.0179 | drift +8.79% | fluid 32.0410 | solid 123.9768
  Impulse FP iterations last/mean/max 9/9.80/10
Step  1300/2000   65.0% | t 65.000 | ETA 1m 38s | step 0.15s | KE 156.0309 | drift +8.80% | fluid 30.2926 | solid 125.7383
  Impulse FP iterations last/mean/max 10/9.79/10
Step  1400/2000   70.0% | t 70.000 | ETA 1m 23s | step 0.15s | KE 156.0854 | drift +8.84% | fluid 29.8393 | solid 126.2462
  Impulse FP iterations last/mean/max 10/9.78/10
Step  1500/2000   75.0% | t 75.000 | ETA 1m 9s | step 0.15s | KE 156.1680 | drift +8.90% | fluid 30.9944 | solid 125.1736
  Impulse FP iterations last/mean/max 10/9.77/10
Step  1600/2000   80.0% | t 80.000 | ETA 55s | step 0.15s | KE 156.1824 | drift +8.91% | fluid 28.3858 | solid 127.7966
  Impulse FP iterations last/mean/max 10/9.77/10
Step  1700/2000   85.0% | t 85.000 | ETA 41s | step 0.14s | KE 156.1198 | drift +8.86% | fluid 30.3862 | solid 125.7336
  Impulse FP iterations last/mean/max 10/9.76/10
Step  1800/2000   90.0% | t 90.000 | ETA 27s | step 0.14s | KE 156.1394 | drift +8.88% | fluid 31.1370 | solid 125.0024
  Impulse FP iterations last/mean/max 10/9.76/10
Step  1900/2000   95.0% | t 95.000 | ETA 13s | step 0.13s | KE 156.1554 | drift +8.89% | fluid 28.1799 | solid 127.9755
  Impulse FP iterations last/mean/max 10/9.76/10
Solver finished successfully - good job!
Results saved successfully.

================== Run summary ==================
  Bodies:            2
  Triangles / nodes: 256 / 516
  Timesteps:         2000  (dt = 0.05)
  Simulated time:    0 -> 100
  First-step setup:  0.300 s
  Mean time/step:    0.1387 s  (excl. first step)
  Total wall time:   4m 37s
  Impulse FP iters last/mean/max: 10 / 9.754 / 10
  Approx impulse solves/step:     9.755
  Impulse start cache hits/direct: 1999 / 1
  Impulse global drift P/H:       1.544512e-8 / 1.954244e-2
  Impulse per-body max drift P/H: 2.659072e-8 / 4.717441e-3
  CPU cores:         256 available, 8 Rayon worker thread(s)
  Started:           2026-06-24 01:34:39
  Finished:          2026-06-24 01:39:17
  Output file:       /work/e643/e643/shared/multi_ellip/studies/two_body_paper_sweeps/runs/spheroid_1_0p7_0p7/spheroid_1_0p7_0p7_rho1_E1p5_sep8_run04_impulse_noproj/multiple_body_complete.dat
================================================
