
================ Simulation setup ================
  Run label:         /work/e643/e643/shared/multi_ellip/studies/two_body_paper_sweeps/runs/ellipsoid_1_0p8_0p6/ellipsoid_1_0p8_0p6_rho4_E0p55_sep11_run02_impulse_noproj/
  Started:           2026-06-22 19:26:47
  Input file:        /work/e643/e643/shared/multi_ellip/studies/two_body_paper_sweeps/runs/ellipsoid_1_0p8_0p6/ellipsoid_1_0p8_0p6_rho4_E0p55_sep11_run02_impulse_noproj/input.txt
  Output file:       /work/e643/e643/shared/multi_ellip/studies/two_body_paper_sweeps/runs/ellipsoid_1_0p8_0p6/ellipsoid_1_0p8_0p6_rho4_E0p55_sep11_run02_impulse_noproj/multiple_body_complete.dat
  Bodies:            2
  Fluid density:     1
  Mesh:              ndiv 2 -> 256 triangles / 516 nodes
  Simulated time:    0 -> 100  (dt = 0.05, ~2000 steps)
  Output cadence:    every 1 step(s)
  Output rows:       ~2001
  Progress cadence:  every 100 step(s)
  CPU cores:         256 available, 8 Rayon worker thread(s)
  Strong coupling:   disabled
  Impulse scheme:    enabled
  Hamiltonian step:  disabled
  Hamiltonian midpt: disabled
  Variational step:  disabled
  Energy projection: disabled
  Projection particular metric: Euclidean
  Fluid KE gradient: disabled  (eps = 0.001, scale = 1, linear = 1, angular = 1)
  Fluid KE discrete gradient: disabled
  Impulse pair metric correction: disabled  (mode = pair discrete-gradient, cutoff = all pairs, inner/outer = 0/0, eps = 0.001, linear scale = 1, angular scale = 0)
  Impulse metric correction: disabled  (internal load constraint = disabled)
  Impulse variational defect probe: disabled
  Impulse quadratic pressure: disabled  (scale = 1)
  Added-mass stab:   disabled
  Exact BEM geometry: disabled
  Exact singular BEM: disabled
  Legacy singular SLP diagnostic: disabled
  Phi-dot blend:     0 (off)

  Solver guidance:
    - Strong coupling: use for stiff close-coupled runs; slower but more implicit.
    - Impulse scheme: use when impulse/momentum conservation or KE drift is the focus. Recommended.
    - Added-mass stab: use for higher mesh counts (ndiv > 3) to preserve stability - deprecated.
================================================
Solver starting - good luck!

Initial state:
  Body  1
    density:          4.000000
    shape axes ratio: (1.000000, 0.800000, 0.600000)
    initial KE ratio: 0.550000
    position:         (-5.500000, 0.000000, 0.000000)
    velocity:         (2.577860, 3.619994, 3.703210)
    angular velocity: (3.273281, 2.292822, 4.848403)
    orientation:      (w=0.577350, i=0.577350, j=0.577350, k=0.000000)
  Body  2
    density:          4.000000
    shape axes ratio: (1.000000, 0.800000, 0.600000)
    initial KE ratio: 0.550000
    position:         (5.500000, 0.000000, 0.000000)
    velocity:         (2.562105, 3.597870, 3.680579)
    angular velocity: (-1.105378, 5.423041, -2.974422)
    orientation:      (w=0.577350, i=-0.577350, j=0.000000, k=0.577350)

Preparing first step: implicit scheme, no bootstrap passes required.
First step may take longer than later steps.

First step completed in 0.324 s.

Step   100/2000    5.0% | t 5.000 | ETA 3m 44s | step 0.11s | KE 919.2758 | drift +0.22% | fluid 85.1801 | solid 834.0957
  Impulse FP iterations last/mean/max 9/8.75/9
Step   200/2000   10.0% | t 10.000 | ETA 3m 33s | step 0.12s | KE 920.1333 | drift +0.31% | fluid 94.2566 | solid 825.8766
  Impulse FP iterations last/mean/max 8/8.74/9
Step   300/2000   15.0% | t 15.000 | ETA 3m 20s | step 0.12s | KE 920.9739 | drift +0.41% | fluid 92.3781 | solid 828.5958
  Impulse FP iterations last/mean/max 9/8.73/9
Step   400/2000   20.0% | t 20.000 | ETA 3m 8s | step 0.12s | KE 921.0567 | drift +0.41% | fluid 91.0925 | solid 829.9641
  Impulse FP iterations last/mean/max 9/8.72/9
Step   500/2000   25.0% | t 25.000 | ETA 2m 57s | step 0.13s | KE 920.0438 | drift +0.30% | fluid 97.3125 | solid 822.7313
  Impulse FP iterations last/mean/max 9/8.73/9
Step   600/2000   30.0% | t 30.000 | ETA 2m 45s | step 0.12s | KE 919.2592 | drift +0.22% | fluid 80.8330 | solid 838.4262
  Impulse FP iterations last/mean/max 9/8.73/9
Step   700/2000   35.0% | t 35.000 | ETA 2m 33s | step 0.12s | KE 917.3021 | drift +0.01% | fluid 79.2455 | solid 838.0566
  Impulse FP iterations last/mean/max 8/8.74/9
Step   800/2000   40.0% | t 40.000 | ETA 2m 22s | step 0.12s | KE 914.3208 | drift -0.32% | fluid 88.4964 | solid 825.8244
  Impulse FP iterations last/mean/max 9/8.74/9
Step   900/2000   45.0% | t 45.000 | ETA 2m 10s | step 0.12s | KE 912.0112 | drift -0.57% | fluid 82.2987 | solid 829.7125
  Impulse FP iterations last/mean/max 8/8.72/9
Step  1000/2000   50.0% | t 50.000 | ETA 1m 58s | step 0.12s | KE 909.3718 | drift -0.86% | fluid 84.9550 | solid 824.4168
  Impulse FP iterations last/mean/max 9/8.72/9
Step  1100/2000   55.0% | t 55.000 | ETA 1m 46s | step 0.12s | KE 908.0455 | drift -1.00% | fluid 74.0773 | solid 833.9682
  Impulse FP iterations last/mean/max 9/8.72/9
Step  1200/2000   60.0% | t 60.000 | ETA 1m 34s | step 0.11s | KE 906.7096 | drift -1.15% | fluid 73.4145 | solid 833.2950
  Impulse FP iterations last/mean/max 8/8.72/9
Step  1300/2000   65.0% | t 65.000 | ETA 1m 23s | step 0.12s | KE 905.9571 | drift -1.23% | fluid 80.6593 | solid 825.2978
  Impulse FP iterations last/mean/max 8/8.72/9
Step  1400/2000   70.0% | t 70.000 | ETA 1m 11s | step 0.11s | KE 905.4267 | drift -1.29% | fluid 83.1818 | solid 822.2449
  Impulse FP iterations last/mean/max 8/8.72/9
Step  1500/2000   75.0% | t 75.000 | ETA 59s | step 0.10s | KE 905.2424 | drift -1.31% | fluid 85.7750 | solid 819.4673
  Impulse FP iterations last/mean/max 9/8.72/9
Step  1600/2000   80.0% | t 80.000 | ETA 46s | step 0.09s | KE 905.3472 | drift -1.30% | fluid 83.5898 | solid 821.7574
  Impulse FP iterations last/mean/max 8/8.72/9
Step  1700/2000   85.0% | t 85.000 | ETA 34s | step 0.08s | KE 905.3592 | drift -1.30% | fluid 80.9108 | solid 824.4483
  Impulse FP iterations last/mean/max 8/8.71/9
Step  1800/2000   90.0% | t 90.000 | ETA 22s | step 0.07s | KE 905.2605 | drift -1.31% | fluid 92.2497 | solid 813.0108
  Impulse FP iterations last/mean/max 8/8.71/9
Step  1900/2000   95.0% | t 95.000 | ETA 11s | step 0.08s | KE 905.1784 | drift -1.32% | fluid 92.3769 | solid 812.8015
  Impulse FP iterations last/mean/max 9/8.71/9
Solver finished successfully - good job!
Results saved successfully.

================== Run summary ==================
  Bodies:            2
  Triangles / nodes: 256 / 516
  Timesteps:         2000  (dt = 0.05)
  Simulated time:    0 -> 100
  First-step setup:  0.324 s
  Mean time/step:    0.1102 s  (excl. first step)
  Total wall time:   3m 40s
  Impulse FP iters last/mean/max: 9 / 8.718 / 9
  Approx impulse solves/step:     8.719
  Impulse start cache hits/direct: 1999 / 1
  Impulse global drift P/H:       3.670242e-9 / 2.020308e-2
  Impulse per-body max drift P/H: 5.568037e-9 / 2.826710e-3
  CPU cores:         256 available, 8 Rayon worker thread(s)
  Started:           2026-06-22 19:26:47
  Finished:          2026-06-22 19:30:28
  Output file:       /work/e643/e643/shared/multi_ellip/studies/two_body_paper_sweeps/runs/ellipsoid_1_0p8_0p6/ellipsoid_1_0p8_0p6_rho4_E0p55_sep11_run02_impulse_noproj/multiple_body_complete.dat
================================================
