
================ Simulation setup ================
  Run label:         /work/e643/e643/shared/multi_ellip/studies/two_body_paper_sweeps/runs/spheroid_1_0p7_0p7/spheroid_1_0p7_0p7_rho10_E30_sep3_run03_impulse_noproj/
  Started:           2026-06-24 01:18:39
  Input file:        /work/e643/e643/shared/multi_ellip/studies/two_body_paper_sweeps/runs/spheroid_1_0p7_0p7/spheroid_1_0p7_0p7_rho10_E30_sep3_run03_impulse_noproj/input.txt
  Output file:       /work/e643/e643/shared/multi_ellip/studies/two_body_paper_sweeps/runs/spheroid_1_0p7_0p7/spheroid_1_0p7_0p7_rho10_E30_sep3_run03_impulse_noproj/multiple_body_complete.dat
  Bodies:            2
  Fluid density:     1
  Mesh:              ndiv 2 -> 256 triangles / 516 nodes
  Simulated time:    0 -> 100  (dt = 0.05, ~2000 steps)
  Output cadence:    every 1 step(s)
  Output rows:       ~2001
  Progress cadence:  every 100 step(s)
  CPU cores:         256 available, 8 Rayon worker thread(s)
  Strong coupling:   disabled
  Impulse scheme:    enabled
  Hamiltonian step:  disabled
  Hamiltonian midpt: disabled
  Variational step:  disabled
  Energy projection: disabled
  Projection particular metric: Euclidean
  Fluid KE gradient: disabled  (eps = 0.001, scale = 1, linear = 1, angular = 1)
  Fluid KE discrete gradient: disabled
  Impulse pair metric correction: disabled  (mode = pair discrete-gradient, cutoff = all pairs, inner/outer = 0/0, eps = 0.001, linear scale = 1, angular scale = 0)
  Impulse metric correction: disabled  (internal load constraint = disabled)
  Impulse variational defect probe: disabled
  Impulse quadratic pressure: disabled  (scale = 1)
  Added-mass stab:   disabled
  Exact BEM geometry: disabled
  Exact singular BEM: disabled
  Legacy singular SLP diagnostic: disabled
  Phi-dot blend:     0 (off)

  Solver guidance:
    - Strong coupling: use for stiff close-coupled runs; slower but more implicit.
    - Impulse scheme: use when impulse/momentum conservation or KE drift is the focus. Recommended.
    - Added-mass stab: use for higher mesh counts (ndiv > 3) to preserve stability - deprecated.
================================================
Solver starting - good luck!

Initial state:
  Body  1
    density:          10.000000
    shape axes ratio: (1.000000, 0.700000, 0.700000)
    initial KE ratio: 30.000000
    position:         (-1.500000, 0.000000, 0.000000)
    velocity:         (-0.786337, 0.105274, 0.039050)
    angular velocity: (0.043919, 6.035418, 1.746486)
    orientation:      (w=-0.328648, i=0.686324, j=0.551904, k=-0.341103)
  Body  2
    density:          10.000000
    shape axes ratio: (1.000000, 0.700000, 0.700000)
    initial KE ratio: 30.000000
    position:         (1.500000, 0.000000, 0.000000)
    velocity:         (-0.730833, 0.097843, 0.036293)
    angular velocity: (3.963520, 2.796059, -3.993868)
    orientation:      (w=0.553256, i=-0.708712, j=0.422097, k=-0.116055)

Preparing first step: implicit scheme, no bootstrap passes required.
First step may take longer than later steps.

First step completed in 0.317 s.

Step   100/2000    5.0% | t 5.000 | ETA 3m 12s | step 0.10s | KE 699.8217 | drift -0.01% | fluid 4.8980 | solid 694.9237
  Impulse FP iterations last/mean/max 7/7.03/8
Step   200/2000   10.0% | t 10.000 | ETA 3m 1s | step 0.10s | KE 699.8660 | drift -0.01% | fluid 4.7234 | solid 695.1427
  Impulse FP iterations last/mean/max 7/7.03/8
Step   300/2000   15.0% | t 15.000 | ETA 2m 51s | step 0.11s | KE 699.8311 | drift -0.01% | fluid 4.9616 | solid 694.8694
  Impulse FP iterations last/mean/max 7/7.01/8
Step   400/2000   20.0% | t 20.000 | ETA 2m 40s | step 0.11s | KE 699.8720 | drift -0.01% | fluid 4.9749 | solid 694.8971
  Impulse FP iterations last/mean/max 8/6.99/8
Step   500/2000   25.0% | t 25.000 | ETA 2m 29s | step 0.10s | KE 699.9065 | drift -0.00% | fluid 5.0562 | solid 694.8503
  Impulse FP iterations last/mean/max 7/6.96/8
Step   600/2000   30.0% | t 30.000 | ETA 2m 17s | step 0.07s | KE 699.9966 | drift +0.01% | fluid 4.9708 | solid 695.0257
  Impulse FP iterations last/mean/max 6/6.95/8
Step   700/2000   35.0% | t 35.000 | ETA 2m 6s | step 0.11s | KE 700.0833 | drift +0.02% | fluid 4.8523 | solid 695.2310
  Impulse FP iterations last/mean/max 7/6.93/8
Step   800/2000   40.0% | t 40.000 | ETA 1m 56s | step 0.09s | KE 700.1402 | drift +0.03% | fluid 5.0726 | solid 695.0675
  Impulse FP iterations last/mean/max 7/6.92/8
Step   900/2000   45.0% | t 45.000 | ETA 1m 46s | step 0.10s | KE 700.2022 | drift +0.04% | fluid 5.0206 | solid 695.1816
  Impulse FP iterations last/mean/max 7/6.91/8
Step  1000/2000   50.0% | t 50.000 | ETA 1m 37s | step 0.09s | KE 700.2585 | drift +0.05% | fluid 4.9746 | solid 695.2839
  Impulse FP iterations last/mean/max 6/6.90/8
Step  1100/2000   55.0% | t 55.000 | ETA 1m 27s | step 0.08s | KE 700.3277 | drift +0.06% | fluid 4.8736 | solid 695.4541
  Impulse FP iterations last/mean/max 6/6.90/8
Step  1200/2000   60.0% | t 60.000 | ETA 1m 17s | step 0.10s | KE 700.3869 | drift +0.07% | fluid 4.7692 | solid 695.6177
  Impulse FP iterations last/mean/max 7/6.89/8
Step  1300/2000   65.0% | t 65.000 | ETA 1m 8s | step 0.10s | KE 700.4259 | drift +0.07% | fluid 5.0626 | solid 695.3632
  Impulse FP iterations last/mean/max 7/6.88/8
Step  1400/2000   70.0% | t 70.000 | ETA 58s | step 0.10s | KE 700.4682 | drift +0.08% | fluid 5.0860 | solid 695.3821
  Impulse FP iterations last/mean/max 7/6.88/8
Step  1500/2000   75.0% | t 75.000 | ETA 48s | step 0.08s | KE 700.5101 | drift +0.08% | fluid 5.0313 | solid 695.4788
  Impulse FP iterations last/mean/max 6/6.87/8
Step  1600/2000   80.0% | t 80.000 | ETA 38s | step 0.09s | KE 700.5549 | drift +0.09% | fluid 4.9634 | solid 695.5915
  Impulse FP iterations last/mean/max 6/6.87/8
Step  1700/2000   85.0% | t 85.000 | ETA 29s | step 0.10s | KE 700.5916 | drift +0.10% | fluid 4.8523 | solid 695.7393
  Impulse FP iterations last/mean/max 7/6.86/8
Step  1800/2000   90.0% | t 90.000 | ETA 19s | step 0.09s | KE 700.6146 | drift +0.10% | fluid 5.1198 | solid 695.4948
  Impulse FP iterations last/mean/max 7/6.86/8
Step  1900/2000   95.0% | t 95.000 | ETA 9s | step 0.09s | KE 700.6420 | drift +0.10% | fluid 5.0975 | solid 695.5444
  Impulse FP iterations last/mean/max 7/6.86/8
Solver finished successfully - good job!
Results saved successfully.

================== Run summary ==================
  Bodies:            2
  Triangles / nodes: 256 / 516
  Timesteps:         2000  (dt = 0.05)
  Simulated time:    0 -> 100
  First-step setup:  0.317 s
  Mean time/step:    0.0950 s  (excl. first step)
  Total wall time:   3m 10s
  Impulse FP iters last/mean/max: 6 / 6.854 / 8
  Approx impulse solves/step:     6.854
  Impulse start cache hits/direct: 1999 / 1
  Impulse global drift P/H:       8.952017e-9 / 2.545947e-3
  Impulse per-body max drift P/H: 1.096060e-8 / 4.039224e-3
  CPU cores:         256 available, 8 Rayon worker thread(s)
  Started:           2026-06-24 01:18:39
  Finished:          2026-06-24 01:21:50
  Output file:       /work/e643/e643/shared/multi_ellip/studies/two_body_paper_sweeps/runs/spheroid_1_0p7_0p7/spheroid_1_0p7_0p7_rho10_E30_sep3_run03_impulse_noproj/multiple_body_complete.dat
================================================
