
================ Simulation setup ================
  Run label:         /work/e643/e643/shared/multi_ellip/studies/departing_sphericity_sweep/runs/triaxial/heterogeneous_sphere/triaxial_heterogeneous_sphere_eps0p03_rho1_E0p5_sep8_run10_impulse_noproj/
  Started:           2026-06-24 02:46:57
  Input file:        /work/e643/e643/shared/multi_ellip/studies/departing_sphericity_sweep/runs/triaxial/heterogeneous_sphere/triaxial_heterogeneous_sphere_eps0p03_rho1_E0p5_sep8_run10_impulse_noproj/input.txt
  Output file:       /work/e643/e643/shared/multi_ellip/studies/departing_sphericity_sweep/runs/triaxial/heterogeneous_sphere/triaxial_heterogeneous_sphere_eps0p03_rho1_E0p5_sep8_run10_impulse_noproj/multiple_body_complete.dat
  Bodies:            2
  Fluid density:     1
  Mesh:              ndiv 2 -> 256 triangles / 516 nodes
  Simulated time:    0 -> 100  (dt = 0.05, ~2000 steps)
  Output cadence:    every 1 step(s)
  Output rows:       ~2001
  Progress cadence:  every 100 step(s)
  CPU cores:         256 available, 8 Rayon worker thread(s)
  Strong coupling:   disabled
  Impulse scheme:    enabled
  Hamiltonian step:  disabled
  Hamiltonian midpt: disabled
  Variational step:  disabled
  Energy projection: disabled
  Projection particular metric: Euclidean
  Fluid KE gradient: disabled  (eps = 0.001, scale = 1, linear = 1, angular = 1)
  Fluid KE discrete gradient: disabled
  Impulse pair metric correction: disabled  (mode = pair discrete-gradient, cutoff = all pairs, inner/outer = 0/0, eps = 0.001, linear scale = 1, angular scale = 0)
  Impulse metric correction: disabled  (internal load constraint = disabled)
  Impulse variational defect probe: disabled
  Impulse quadratic pressure: disabled  (scale = 1)
  Added-mass stab:   disabled
  Exact BEM geometry: disabled
  Exact singular BEM: disabled
  Legacy singular SLP diagnostic: disabled
  Phi-dot blend:     0 (off)

  Solver guidance:
    - Strong coupling: use for stiff close-coupled runs; slower but more implicit.
    - Impulse scheme: use when impulse/momentum conservation or KE drift is the focus. Recommended.
    - Added-mass stab: use for higher mesh counts (ndiv > 3) to preserve stability - deprecated.
================================================
Solver starting - good luck!

Initial state:
  Body  1
    density:          1.000000
    shape axes ratio: (1.000000, 0.970874, 0.942596)
    initial KE ratio: 0.500000
    position:         (-4.000000, 0.000000, 0.000000)
    velocity:         (0.178969, 0.386865, -5.595573)
    angular velocity: (-4.525979, -1.900494, -3.921996)
    orientation:      (w=-0.266745, i=-0.411791, j=-0.868567, k=-0.069758)
  Body  2
    density:          1.000000
    shape axes ratio: (1.000000, 1.000000, 1.000000)
    initial KE ratio: 0.500000
    position:         (4.000000, 0.000000, 0.000000)
    velocity:         (0.179226, 0.387421, -5.603616)
    angular velocity: (3.402459, 1.858450, 4.944477)
    orientation:      (w=-0.400225, i=0.546968, j=-0.651112, k=0.341613)

Preparing first step: implicit scheme, no bootstrap passes required.
First step may take longer than later steps.

First step completed in 0.230 s.

Step   100/2000    5.0% | t 5.000 | ETA 3m 27s | step 0.11s | KE 271.8332 | drift +0.00% | fluid 73.8727 | solid 197.9605
  Impulse FP iterations last/mean/max 8/7.87/8
Step   200/2000   10.0% | t 10.000 | ETA 3m 18s | step 0.10s | KE 271.9343 | drift +0.04% | fluid 73.8219 | solid 198.1124
  Impulse FP iterations last/mean/max 7/7.89/8
Step   300/2000   15.0% | t 15.000 | ETA 3m 9s | step 0.12s | KE 272.2631 | drift +0.16% | fluid 73.8571 | solid 198.4060
  Impulse FP iterations last/mean/max 8/7.89/8
Step   400/2000   20.0% | t 20.000 | ETA 2m 59s | step 0.11s | KE 273.5554 | drift +0.64% | fluid 73.3635 | solid 200.1919
  Impulse FP iterations last/mean/max 8/7.91/8
Step   500/2000   25.0% | t 25.000 | ETA 2m 49s | step 0.12s | KE 276.8844 | drift +1.86% | fluid 72.9655 | solid 203.9189
  Impulse FP iterations last/mean/max 8/7.92/8
Step   600/2000   30.0% | t 30.000 | ETA 2m 36s | step 0.10s | KE 283.6145 | drift +4.34% | fluid 73.0834 | solid 210.5311
  Impulse FP iterations last/mean/max 8/7.93/8
Step   700/2000   35.0% | t 35.000 | ETA 2m 23s | step 0.09s | KE 295.7472 | drift +8.80% | fluid 73.3526 | solid 222.3946
  Impulse FP iterations last/mean/max 7/7.94/8
Step   800/2000   40.0% | t 40.000 | ETA 2m 10s | step 0.10s | KE 316.3532 | drift +16.38% | fluid 73.7396 | solid 242.6136
  Impulse FP iterations last/mean/max 8/7.95/9
Step   900/2000   45.0% | t 45.000 | ETA 1m 59s | step 0.11s | KE 349.7177 | drift +28.65% | fluid 74.0120 | solid 275.7056
  Impulse FP iterations last/mean/max 8/7.95/9
Step  1000/2000   50.0% | t 50.000 | ETA 1m 49s | step 0.12s | KE 400.2128 | drift +47.23% | fluid 72.9917 | solid 327.2212
  Impulse FP iterations last/mean/max 8/7.96/9
Step  1100/2000   55.0% | t 55.000 | ETA 1m 38s | step 0.11s | KE 471.5432 | drift +73.47% | fluid 73.3448 | solid 398.1984
  Impulse FP iterations last/mean/max 8/7.97/9
Step  1200/2000   60.0% | t 60.000 | ETA 1m 28s | step 0.11s | KE 566.7785 | drift +108.51% | fluid 73.1420 | solid 493.6365
  Impulse FP iterations last/mean/max 8/8.02/9
Step  1300/2000   65.0% | t 65.000 | ETA 1m 17s | step 0.14s | KE 685.9546 | drift +152.35% | fluid 74.2665 | solid 611.6881
  Impulse FP iterations last/mean/max 9/8.03/9
Step  1400/2000   70.0% | t 70.000 | ETA 1m 7s | step 0.12s | KE 828.5073 | drift +204.79% | fluid 73.6360 | solid 754.8713
  Impulse FP iterations last/mean/max 8/8.08/9
Step  1500/2000   75.0% | t 75.000 | ETA 56s | step 0.13s | KE 987.2323 | drift +263.18% | fluid 74.3823 | solid 912.8499
  Impulse FP iterations last/mean/max 9/8.12/9
Step  1600/2000   80.0% | t 80.000 | ETA 45s | step 0.14s | KE 1156.0075 | drift +325.27% | fluid 74.8784 | solid 1081.1291
  Impulse FP iterations last/mean/max 9/8.14/9
Step  1700/2000   85.0% | t 85.000 | ETA 34s | step 0.13s | KE 1328.8351 | drift +388.85% | fluid 74.4425 | solid 1254.3926
  Impulse FP iterations last/mean/max 9/8.16/9
Step  1800/2000   90.0% | t 90.000 | ETA 22s | step 0.13s | KE 1495.4449 | drift +450.14% | fluid 74.4008 | solid 1421.0441
  Impulse FP iterations last/mean/max 9/8.18/9
Step  1900/2000   95.0% | t 95.000 | ETA 11s | step 0.11s | KE 1651.5733 | drift +507.58% | fluid 74.2525 | solid 1577.3208
  Impulse FP iterations last/mean/max 8/8.19/9
Solver finished successfully - good job!
Results saved successfully.

================== Run summary ==================
  Bodies:            2
  Triangles / nodes: 256 / 516
  Timesteps:         2000  (dt = 0.05)
  Simulated time:    0 -> 100
  First-step setup:  0.230 s
  Mean time/step:    0.1146 s  (excl. first step)
  Total wall time:   3m 49s
  Impulse FP iters last/mean/max: 8 / 8.191 / 9
  Approx impulse solves/step:     8.192
  Impulse start cache hits/direct: 1999 / 1
  Impulse global drift P/H:       2.872367e-8 / 1.266432e0
  Impulse per-body max drift P/H: 6.369163e-8 / 2.052517e-2
  CPU cores:         256 available, 8 Rayon worker thread(s)
  Started:           2026-06-24 02:46:57
  Finished:          2026-06-24 02:50:47
  Output file:       /work/e643/e643/shared/multi_ellip/studies/departing_sphericity_sweep/runs/triaxial/heterogeneous_sphere/triaxial_heterogeneous_sphere_eps0p03_rho1_E0p5_sep8_run10_impulse_noproj/multiple_body_complete.dat
================================================
