
================ Simulation setup ================
  Run label:         /work/e643/e643/shared/multi_ellip/studies/departing_sphericity_sweep/runs/triaxial/heterogeneous_sphere/triaxial_heterogeneous_sphere_eps0_rho1_E0p5_sep8_run08_impulse_noproj/
  Started:           2026-06-24 02:37:13
  Input file:        /work/e643/e643/shared/multi_ellip/studies/departing_sphericity_sweep/runs/triaxial/heterogeneous_sphere/triaxial_heterogeneous_sphere_eps0_rho1_E0p5_sep8_run08_impulse_noproj/input.txt
  Output file:       /work/e643/e643/shared/multi_ellip/studies/departing_sphericity_sweep/runs/triaxial/heterogeneous_sphere/triaxial_heterogeneous_sphere_eps0_rho1_E0p5_sep8_run08_impulse_noproj/multiple_body_complete.dat
  Bodies:            2
  Fluid density:     1
  Mesh:              ndiv 2 -> 256 triangles / 516 nodes
  Simulated time:    0 -> 100  (dt = 0.05, ~2000 steps)
  Output cadence:    every 1 step(s)
  Output rows:       ~2001
  Progress cadence:  every 100 step(s)
  CPU cores:         256 available, 8 Rayon worker thread(s)
  Strong coupling:   disabled
  Impulse scheme:    enabled
  Hamiltonian step:  disabled
  Hamiltonian midpt: disabled
  Variational step:  disabled
  Energy projection: disabled
  Projection particular metric: Euclidean
  Fluid KE gradient: disabled  (eps = 0.001, scale = 1, linear = 1, angular = 1)
  Fluid KE discrete gradient: disabled
  Impulse pair metric correction: disabled  (mode = pair discrete-gradient, cutoff = all pairs, inner/outer = 0/0, eps = 0.001, linear scale = 1, angular scale = 0)
  Impulse metric correction: disabled  (internal load constraint = disabled)
  Impulse variational defect probe: disabled
  Impulse quadratic pressure: disabled  (scale = 1)
  Added-mass stab:   disabled
  Exact BEM geometry: disabled
  Exact singular BEM: disabled
  Legacy singular SLP diagnostic: disabled
  Phi-dot blend:     0 (off)

  Solver guidance:
    - Strong coupling: use for stiff close-coupled runs; slower but more implicit.
    - Impulse scheme: use when impulse/momentum conservation or KE drift is the focus. Recommended.
    - Added-mass stab: use for higher mesh counts (ndiv > 3) to preserve stability - deprecated.
================================================
Solver starting - good luck!

Initial state:
  Body  1
    density:          1.000000
    shape axes ratio: (1.000000, 1.000000, 1.000000)
    initial KE ratio: 0.500000
    position:         (-4.000000, 0.000000, 0.000000)
    velocity:         (-3.295914, -0.070793, 4.551338)
    angular velocity: (5.883263, -1.728390, 1.370511)
    orientation:      (w=-0.409635, i=-0.087410, j=-0.154421, k=-0.894826)
  Body  2
    density:          1.000000
    shape axes ratio: (1.000000, 1.000000, 1.000000)
    initial KE ratio: 0.500000
    position:         (4.000000, 0.000000, 0.000000)
    velocity:         (-3.295914, -0.070793, 4.551338)
    angular velocity: (-6.110382, -0.391238, 1.410172)
    orientation:      (w=0.858979, i=-0.456195, j=0.224820, k=0.059140)

Preparing first step: implicit scheme, no bootstrap passes required.
First step may take longer than later steps.

First step completed in 0.223 s.

Step   100/2000    5.0% | t 5.000 | ETA 2m 35s | step 0.08s | KE 275.5303 | drift +1.74% | fluid 72.3858 | solid 203.1445
  Impulse FP iterations last/mean/max 6/5.95/6
Step   200/2000   10.0% | t 10.000 | ETA 2m 28s | step 0.08s | KE 283.1341 | drift +4.54% | fluid 72.3858 | solid 210.7484
  Impulse FP iterations last/mean/max 6/5.97/6
Step   300/2000   15.0% | t 15.000 | ETA 2m 20s | step 0.09s | KE 293.6376 | drift +8.42% | fluid 72.3858 | solid 221.2518
  Impulse FP iterations last/mean/max 6/5.98/6
Step   400/2000   20.0% | t 20.000 | ETA 2m 12s | step 0.08s | KE 307.0405 | drift +13.37% | fluid 72.3858 | solid 234.6547
  Impulse FP iterations last/mean/max 6/5.99/6
Step   500/2000   25.0% | t 25.000 | ETA 2m 4s | step 0.09s | KE 323.3426 | drift +19.39% | fluid 72.3858 | solid 250.9568
  Impulse FP iterations last/mean/max 6/5.99/6
Step   600/2000   30.0% | t 30.000 | ETA 1m 56s | step 0.08s | KE 342.5440 | drift +26.48% | fluid 72.3858 | solid 270.1582
  Impulse FP iterations last/mean/max 6/5.99/6
Step   700/2000   35.0% | t 35.000 | ETA 1m 48s | step 0.08s | KE 364.6442 | drift +34.64% | fluid 72.3858 | solid 292.2584
  Impulse FP iterations last/mean/max 6/5.99/6
Step   800/2000   40.0% | t 40.000 | ETA 1m 39s | step 0.07s | KE 389.6433 | drift +43.87% | fluid 72.3858 | solid 317.2575
  Impulse FP iterations last/mean/max 5/5.98/6
Step   900/2000   45.0% | t 45.000 | ETA 1m 31s | step 0.08s | KE 417.5411 | drift +54.17% | fluid 72.3858 | solid 345.1552
  Impulse FP iterations last/mean/max 6/5.96/6
Step  1000/2000   50.0% | t 50.000 | ETA 1m 22s | step 0.09s | KE 448.3372 | drift +65.54% | fluid 72.3859 | solid 375.9513
  Impulse FP iterations last/mean/max 6/5.94/6
Step  1100/2000   55.0% | t 55.000 | ETA 1m 14s | step 0.09s | KE 482.0314 | drift +77.99% | fluid 72.3859 | solid 409.6455
  Impulse FP iterations last/mean/max 6/5.92/6
Step  1200/2000   60.0% | t 60.000 | ETA 1m 5s | step 0.07s | KE 518.6235 | drift +91.50% | fluid 72.3859 | solid 446.2376
  Impulse FP iterations last/mean/max 5/5.90/6
Step  1300/2000   65.0% | t 65.000 | ETA 57s | step 0.08s | KE 558.1134 | drift +106.08% | fluid 72.3859 | solid 485.7274
  Impulse FP iterations last/mean/max 6/5.88/6
Step  1400/2000   70.0% | t 70.000 | ETA 49s | step 0.07s | KE 600.5006 | drift +121.73% | fluid 72.3860 | solid 528.1147
  Impulse FP iterations last/mean/max 5/5.86/6
Step  1500/2000   75.0% | t 75.000 | ETA 40s | step 0.07s | KE 645.7850 | drift +138.45% | fluid 72.3860 | solid 573.3990
  Impulse FP iterations last/mean/max 5/5.85/6
Step  1600/2000   80.0% | t 80.000 | ETA 32s | step 0.07s | KE 693.9663 | drift +156.24% | fluid 72.3860 | solid 621.5803
  Impulse FP iterations last/mean/max 6/5.83/6
Step  1700/2000   85.0% | t 85.000 | ETA 24s | step 0.07s | KE 745.0442 | drift +175.10% | fluid 72.3861 | solid 672.6581
  Impulse FP iterations last/mean/max 6/5.81/6
Step  1800/2000   90.0% | t 90.000 | ETA 15s | step 0.07s | KE 799.0183 | drift +195.03% | fluid 72.3861 | solid 726.6322
  Impulse FP iterations last/mean/max 6/5.80/6
Step  1900/2000   95.0% | t 95.000 | ETA 7s | step 0.06s | KE 855.8884 | drift +216.03% | fluid 72.3861 | solid 783.5022
  Impulse FP iterations last/mean/max 6/5.79/6
Solver finished successfully - good job!
Results saved successfully.

================== Run summary ==================
  Bodies:            2
  Triangles / nodes: 256 / 516
  Timesteps:         2000  (dt = 0.05)
  Simulated time:    0 -> 100
  First-step setup:  0.223 s
  Mean time/step:    0.0781 s  (excl. first step)
  Total wall time:   2m 36s
  Impulse FP iters last/mean/max: 6 / 5.782 / 6
  Approx impulse solves/step:     5.783
  Impulse start cache hits/direct: 1999 / 1
  Impulse global drift P/H:       1.169234e-9 / 1.402217e-1
  Impulse per-body max drift P/H: 2.358922e-9 / 6.557141e-3
  CPU cores:         256 available, 8 Rayon worker thread(s)
  Started:           2026-06-24 02:37:13
  Finished:          2026-06-24 02:39:50
  Output file:       /work/e643/e643/shared/multi_ellip/studies/departing_sphericity_sweep/runs/triaxial/heterogeneous_sphere/triaxial_heterogeneous_sphere_eps0_rho1_E0p5_sep8_run08_impulse_noproj/multiple_body_complete.dat
================================================
