
================ Simulation setup ================
  Run label:         /work/e643/e643/shared/multi_ellip/studies/two_body_paper_sweeps/runs/spheroid_1_0p7_0p7/spheroid_1_0p7_0p7_rho0p1_E4_sep11_run03_impulse_noproj/
  Started:           2026-06-24 02:06:37
  Input file:        /work/e643/e643/shared/multi_ellip/studies/two_body_paper_sweeps/runs/spheroid_1_0p7_0p7/spheroid_1_0p7_0p7_rho0p1_E4_sep11_run03_impulse_noproj/input.txt
  Output file:       /work/e643/e643/shared/multi_ellip/studies/two_body_paper_sweeps/runs/spheroid_1_0p7_0p7/spheroid_1_0p7_0p7_rho0p1_E4_sep11_run03_impulse_noproj/multiple_body_complete.dat
  Bodies:            2
  Fluid density:     1
  Mesh:              ndiv 2 -> 256 triangles / 516 nodes
  Simulated time:    0 -> 100  (dt = 0.05, ~2000 steps)
  Output cadence:    every 1 step(s)
  Output rows:       ~2001
  Progress cadence:  every 100 step(s)
  CPU cores:         256 available, 8 Rayon worker thread(s)
  Strong coupling:   disabled
  Impulse scheme:    enabled
  Hamiltonian step:  disabled
  Hamiltonian midpt: disabled
  Variational step:  disabled
  Energy projection: disabled
  Projection particular metric: Euclidean
  Fluid KE gradient: disabled  (eps = 0.001, scale = 1, linear = 1, angular = 1)
  Fluid KE discrete gradient: disabled
  Impulse pair metric correction: disabled  (mode = pair discrete-gradient, cutoff = all pairs, inner/outer = 0/0, eps = 0.001, linear scale = 1, angular scale = 0)
  Impulse metric correction: disabled  (internal load constraint = disabled)
  Impulse variational defect probe: disabled
  Impulse quadratic pressure: disabled  (scale = 1)
  Added-mass stab:   disabled
  Exact BEM geometry: disabled
  Exact singular BEM: disabled
  Legacy singular SLP diagnostic: disabled
  Phi-dot blend:     0 (off)

  Solver guidance:
    - Strong coupling: use for stiff close-coupled runs; slower but more implicit.
    - Impulse scheme: use when impulse/momentum conservation or KE drift is the focus. Recommended.
    - Added-mass stab: use for higher mesh counts (ndiv > 3) to preserve stability - deprecated.
================================================
Solver starting - good luck!

Initial state:
  Body  1
    density:          0.100000
    shape axes ratio: (1.000000, 0.700000, 0.700000)
    initial KE ratio: 4.000000
    position:         (-5.500000, 0.000000, 0.000000)
    velocity:         (-1.260752, -0.897046, 1.523741)
    angular velocity: (-0.626513, 5.645320, 2.686310)
    orientation:      (w=-0.369442, i=0.088559, j=0.147086, k=0.913256)
  Body  2
    density:          0.100000
    shape axes ratio: (1.000000, 0.700000, 0.700000)
    initial KE ratio: 4.000000
    position:         (5.500000, 0.000000, 0.000000)
    velocity:         (-1.253576, -0.891940, 1.515068)
    angular velocity: (-1.302842, -2.095989, -5.778222)
    orientation:      (w=0.047420, i=-0.828394, j=0.088659, k=0.551049)

Preparing first step: implicit scheme, no bootstrap passes required.
First step may take longer than later steps.

First step completed in 0.363 s.

Step   100/2000    5.0% | t 5.000 | ETA 6m 56s | step 0.24s | KE 21.3331 | drift -0.24% | fluid 12.2133 | solid 9.1198
  Impulse FP iterations last/mean/max 17/15.45/18
Step   200/2000   10.0% | t 10.000 | ETA 6m 37s | step 0.20s | KE 21.9400 | drift +2.60% | fluid 13.1695 | solid 8.7705
  Impulse FP iterations last/mean/max 15/15.47/18
Step   300/2000   15.0% | t 15.000 | ETA 6m 15s | step 0.24s | KE 22.1018 | drift +3.35% | fluid 12.7103 | solid 9.3915
  Impulse FP iterations last/mean/max 16/15.47/18
Step   400/2000   20.0% | t 20.000 | ETA 5m 53s | step 0.22s | KE 22.0739 | drift +3.22% | fluid 12.2287 | solid 9.8452
  Impulse FP iterations last/mean/max 16/15.46/18
Step   500/2000   25.0% | t 25.000 | ETA 5m 31s | step 0.24s | KE 22.2086 | drift +3.85% | fluid 12.7114 | solid 9.4972
  Impulse FP iterations last/mean/max 16/15.45/18
Step   600/2000   30.0% | t 30.000 | ETA 5m 9s | step 0.20s | KE 22.2183 | drift +3.90% | fluid 12.6907 | solid 9.5276
  Impulse FP iterations last/mean/max 15/15.46/18
Step   700/2000   35.0% | t 35.000 | ETA 4m 47s | step 0.23s | KE 22.1909 | drift +3.77% | fluid 12.6098 | solid 9.5812
  Impulse FP iterations last/mean/max 16/15.47/18
Step   800/2000   40.0% | t 40.000 | ETA 4m 23s | step 0.21s | KE 22.2224 | drift +3.92% | fluid 12.8843 | solid 9.3381
  Impulse FP iterations last/mean/max 16/15.47/18
Step   900/2000   45.0% | t 45.000 | ETA 3m 58s | step 0.21s | KE 22.1664 | drift +3.66% | fluid 12.5412 | solid 9.6252
  Impulse FP iterations last/mean/max 17/15.47/18
Step  1000/2000   50.0% | t 50.000 | ETA 3m 35s | step 0.22s | KE 22.1341 | drift +3.51% | fluid 12.3015 | solid 9.8326
  Impulse FP iterations last/mean/max 17/15.47/18
Step  1100/2000   55.0% | t 55.000 | ETA 3m 13s | step 0.24s | KE 22.2304 | drift +3.96% | fluid 12.8648 | solid 9.3656
  Impulse FP iterations last/mean/max 16/15.47/18
Step  1200/2000   60.0% | t 60.000 | ETA 2m 52s | step 0.22s | KE 22.2190 | drift +3.90% | fluid 12.8661 | solid 9.3529
  Impulse FP iterations last/mean/max 15/15.47/18
Step  1300/2000   65.0% | t 65.000 | ETA 2m 31s | step 0.21s | KE 22.1927 | drift +3.78% | fluid 12.8369 | solid 9.3558
  Impulse FP iterations last/mean/max 15/15.47/18
Step  1400/2000   70.0% | t 70.000 | ETA 2m 10s | step 0.22s | KE 22.2419 | drift +4.01% | fluid 13.2055 | solid 9.0364
  Impulse FP iterations last/mean/max 15/15.47/18
Step  1500/2000   75.0% | t 75.000 | ETA 1m 48s | step 0.22s | KE 22.1996 | drift +3.81% | fluid 12.8486 | solid 9.3510
  Impulse FP iterations last/mean/max 15/15.47/18
Step  1600/2000   80.0% | t 80.000 | ETA 1m 26s | step 0.21s | KE 22.1406 | drift +3.54% | fluid 12.3387 | solid 9.8018
  Impulse FP iterations last/mean/max 15/15.46/18
Step  1700/2000   85.0% | t 85.000 | ETA 1m 5s | step 0.20s | KE 22.2039 | drift +3.83% | fluid 12.5967 | solid 9.6073
  Impulse FP iterations last/mean/max 15/15.47/18
Step  1800/2000   90.0% | t 90.000 | ETA 43s | step 0.22s | KE 22.1997 | drift +3.81% | fluid 12.5289 | solid 9.6709
  Impulse FP iterations last/mean/max 15/15.47/18
Step  1900/2000   95.0% | t 95.000 | ETA 21s | step 0.20s | KE 22.1951 | drift +3.79% | fluid 12.5795 | solid 9.6156
  Impulse FP iterations last/mean/max 17/15.47/18
Solver finished successfully - good job!
Results saved successfully.

================== Run summary ==================
  Bodies:            2
  Triangles / nodes: 256 / 516
  Timesteps:         2000  (dt = 0.05)
  Simulated time:    0 -> 100
  First-step setup:  0.363 s
  Mean time/step:    0.2161 s  (excl. first step)
  Total wall time:   7m 12s
  Impulse FP iters last/mean/max: 15 / 15.475 / 18
  Approx impulse solves/step:     15.475
  Impulse start cache hits/direct: 1999 / 1
  Impulse global drift P/H:       6.790937e-8 / 9.582736e-3
  Impulse per-body max drift P/H: 1.071033e-7 / 4.736803e-3
  CPU cores:         256 available, 8 Rayon worker thread(s)
  Started:           2026-06-24 02:06:37
  Finished:          2026-06-24 02:13:50
  Output file:       /work/e643/e643/shared/multi_ellip/studies/two_body_paper_sweeps/runs/spheroid_1_0p7_0p7/spheroid_1_0p7_0p7_rho0p1_E4_sep11_run03_impulse_noproj/multiple_body_complete.dat
================================================
