
================ Simulation setup ================
  Run label:         /work/e643/e643/shared/multi_ellip/studies/two_body_paper_sweeps/runs/spheroid_1_0p7_0p7/spheroid_1_0p7_0p7_rho0p03_E30_sep8_run02_impulse_noproj/
  Started:           2026-06-22 20:09:22
  Input file:        /work/e643/e643/shared/multi_ellip/studies/two_body_paper_sweeps/runs/spheroid_1_0p7_0p7/spheroid_1_0p7_0p7_rho0p03_E30_sep8_run02_impulse_noproj/input.txt
  Output file:       /work/e643/e643/shared/multi_ellip/studies/two_body_paper_sweeps/runs/spheroid_1_0p7_0p7/spheroid_1_0p7_0p7_rho0p03_E30_sep8_run02_impulse_noproj/multiple_body_complete.dat
  Bodies:            2
  Fluid density:     1
  Mesh:              ndiv 2 -> 256 triangles / 516 nodes
  Simulated time:    0 -> 100  (dt = 0.05, ~2000 steps)
  Output cadence:    every 1 step(s)
  Output rows:       ~2001
  Progress cadence:  every 100 step(s)
  CPU cores:         256 available, 8 Rayon worker thread(s)
  Strong coupling:   disabled
  Impulse scheme:    enabled
  Hamiltonian step:  disabled
  Hamiltonian midpt: disabled
  Variational step:  disabled
  Energy projection: disabled
  Projection particular metric: Euclidean
  Fluid KE gradient: disabled  (eps = 0.001, scale = 1, linear = 1, angular = 1)
  Fluid KE discrete gradient: disabled
  Impulse pair metric correction: disabled  (mode = pair discrete-gradient, cutoff = all pairs, inner/outer = 0/0, eps = 0.001, linear scale = 1, angular scale = 0)
  Impulse metric correction: disabled  (internal load constraint = disabled)
  Impulse variational defect probe: disabled
  Impulse quadratic pressure: disabled  (scale = 1)
  Added-mass stab:   disabled
  Exact BEM geometry: disabled
  Exact singular BEM: disabled
  Legacy singular SLP diagnostic: disabled
  Phi-dot blend:     0 (off)

  Solver guidance:
    - Strong coupling: use for stiff close-coupled runs; slower but more implicit.
    - Impulse scheme: use when impulse/momentum conservation or KE drift is the focus. Recommended.
    - Added-mass stab: use for higher mesh counts (ndiv > 3) to preserve stability - deprecated.
================================================
Solver starting - good luck!

Initial state:
  Body  1
    density:          0.030000
    shape axes ratio: (1.000000, 0.700000, 0.700000)
    initial KE ratio: 30.000000
    position:         (-4.000000, 0.000000, 0.000000)
    velocity:         (0.119936, -0.555728, -0.401513)
    angular velocity: (5.175239, -3.088786, -1.776152)
    orientation:      (w=0.577350, i=0.577350, j=0.577350, k=0.000000)
  Body  2
    density:          0.030000
    shape axes ratio: (1.000000, 0.700000, 0.700000)
    initial KE ratio: 30.000000
    position:         (4.000000, 0.000000, 0.000000)
    velocity:         (0.122189, -0.566168, -0.409056)
    angular velocity: (-4.839892, -0.614936, 3.959257)
    orientation:      (w=0.577350, i=-0.577350, j=0.000000, k=0.577350)

Preparing first step: implicit scheme, no bootstrap passes required.
First step may take longer than later steps.

First step completed in 0.483 s.

Step   100/2000    5.0% | t 5.000 | ETA 9m 4s | step 0.27s | KE 8.1926 | drift -0.63% | fluid 6.0134 | solid 2.1791
  Impulse FP iterations last/mean/max 19/20.04/23
Step   200/2000   10.0% | t 10.000 | ETA 8m 36s | step 0.29s | KE 8.1483 | drift -1.17% | fluid 5.9732 | solid 2.1752
  Impulse FP iterations last/mean/max 21/20.12/23
Step   300/2000   15.0% | t 15.000 | ETA 8m 5s | step 0.29s | KE 8.1954 | drift -0.60% | fluid 6.0127 | solid 2.1827
  Impulse FP iterations last/mean/max 20/20.01/23
Step   400/2000   20.0% | t 20.000 | ETA 7m 38s | step 0.31s | KE 8.2216 | drift -0.28% | fluid 6.0328 | solid 2.1889
  Impulse FP iterations last/mean/max 21/20.01/23
Step   500/2000   25.0% | t 25.000 | ETA 7m 8s | step 0.32s | KE 8.2204 | drift -0.30% | fluid 6.0522 | solid 2.1682
  Impulse FP iterations last/mean/max 22/19.95/23
Step   600/2000   30.0% | t 30.000 | ETA 6m 39s | step 0.30s | KE 8.2032 | drift -0.51% | fluid 6.0292 | solid 2.1739
  Impulse FP iterations last/mean/max 21/19.92/23
Step   700/2000   35.0% | t 35.000 | ETA 6m 10s | step 0.26s | KE 8.1575 | drift -1.06% | fluid 6.0054 | solid 2.1520
  Impulse FP iterations last/mean/max 18/19.88/23
Step   800/2000   40.0% | t 40.000 | ETA 5m 42s | step 0.32s | KE 8.2565 | drift +0.14% | fluid 6.0719 | solid 2.1846
  Impulse FP iterations last/mean/max 21/19.89/23
Step   900/2000   45.0% | t 45.000 | ETA 5m 14s | step 0.31s | KE 8.3005 | drift +0.67% | fluid 6.1044 | solid 2.1960
  Impulse FP iterations last/mean/max 22/19.91/23
Step  1000/2000   50.0% | t 50.000 | ETA 4m 45s | step 0.31s | KE 8.1889 | drift -0.68% | fluid 5.9949 | solid 2.1940
  Impulse FP iterations last/mean/max 21/19.87/23
Step  1100/2000   55.0% | t 55.000 | ETA 4m 17s | step 0.29s | KE 8.1667 | drift -0.95% | fluid 6.0026 | solid 2.1641
  Impulse FP iterations last/mean/max 20/19.90/23
Step  1200/2000   60.0% | t 60.000 | ETA 3m 49s | step 0.27s | KE 8.2985 | drift +0.65% | fluid 6.0621 | solid 2.2363
  Impulse FP iterations last/mean/max 18/19.92/23
Step  1300/2000   65.0% | t 65.000 | ETA 3m 20s | step 0.29s | KE 8.2785 | drift +0.41% | fluid 6.0830 | solid 2.1955
  Impulse FP iterations last/mean/max 21/19.92/23
Step  1400/2000   70.0% | t 70.000 | ETA 2m 52s | step 0.31s | KE 8.2352 | drift -0.12% | fluid 6.0403 | solid 2.1949
  Impulse FP iterations last/mean/max 21/19.94/23
Step  1500/2000   75.0% | t 75.000 | ETA 2m 22s | step 0.23s | KE 8.2281 | drift -0.20% | fluid 6.0650 | solid 2.1632
  Impulse FP iterations last/mean/max 19/19.93/23
Step  1600/2000   80.0% | t 80.000 | ETA 1m 53s | step 0.31s | KE 8.2451 | drift +0.00% | fluid 6.0629 | solid 2.1822
  Impulse FP iterations last/mean/max 22/19.91/23
Step  1700/2000   85.0% | t 85.000 | ETA 1m 24s | step 0.25s | KE 8.3229 | drift +0.95% | fluid 6.1581 | solid 2.1648
  Impulse FP iterations last/mean/max 19/19.92/23
Step  1800/2000   90.0% | t 90.000 | ETA 56s | step 0.25s | KE 8.3180 | drift +0.89% | fluid 6.0965 | solid 2.2215
  Impulse FP iterations last/mean/max 20/19.92/23
Step  1900/2000   95.0% | t 95.000 | ETA 27s | step 0.25s | KE 8.1871 | drift -0.70% | fluid 6.0292 | solid 2.1578
  Impulse FP iterations last/mean/max 20/19.91/23
Solver finished successfully - good job!
Results saved successfully.

================== Run summary ==================
  Bodies:            2
  Triangles / nodes: 256 / 516
  Timesteps:         2000  (dt = 0.05)
  Simulated time:    0 -> 100
  First-step setup:  0.483 s
  Mean time/step:    0.2765 s  (excl. first step)
  Total wall time:   9m 13s
  Impulse FP iters last/mean/max: 18 / 19.907 / 23
  Approx impulse solves/step:     19.907
  Impulse start cache hits/direct: 1999 / 1
  Impulse global drift P/H:       9.595770e-8 / 3.145679e-2
  Impulse per-body max drift P/H: 1.363775e-7 / 1.157570e-3
  CPU cores:         256 available, 8 Rayon worker thread(s)
  Started:           2026-06-22 20:09:22
  Finished:          2026-06-22 20:18:36
  Output file:       /work/e643/e643/shared/multi_ellip/studies/two_body_paper_sweeps/runs/spheroid_1_0p7_0p7/spheroid_1_0p7_0p7_rho0p03_E30_sep8_run02_impulse_noproj/multiple_body_complete.dat
================================================
