
================ Simulation setup ================
  Run label:         /work/e643/e643/shared/multi_ellip/studies/two_body_paper_sweeps/runs/spheroid_1_0p7_0p7/spheroid_1_0p7_0p7_rho0p1_E4_sep5_run05_impulse_noproj/
  Started:           2026-06-24 02:06:37
  Input file:        /work/e643/e643/shared/multi_ellip/studies/two_body_paper_sweeps/runs/spheroid_1_0p7_0p7/spheroid_1_0p7_0p7_rho0p1_E4_sep5_run05_impulse_noproj/input.txt
  Output file:       /work/e643/e643/shared/multi_ellip/studies/two_body_paper_sweeps/runs/spheroid_1_0p7_0p7/spheroid_1_0p7_0p7_rho0p1_E4_sep5_run05_impulse_noproj/multiple_body_complete.dat
  Bodies:            2
  Fluid density:     1
  Mesh:              ndiv 2 -> 256 triangles / 516 nodes
  Simulated time:    0 -> 100  (dt = 0.05, ~2000 steps)
  Output cadence:    every 1 step(s)
  Output rows:       ~2001
  Progress cadence:  every 100 step(s)
  CPU cores:         256 available, 8 Rayon worker thread(s)
  Strong coupling:   disabled
  Impulse scheme:    enabled
  Hamiltonian step:  disabled
  Hamiltonian midpt: disabled
  Variational step:  disabled
  Energy projection: disabled
  Projection particular metric: Euclidean
  Fluid KE gradient: disabled  (eps = 0.001, scale = 1, linear = 1, angular = 1)
  Fluid KE discrete gradient: disabled
  Impulse pair metric correction: disabled  (mode = pair discrete-gradient, cutoff = all pairs, inner/outer = 0/0, eps = 0.001, linear scale = 1, angular scale = 0)
  Impulse metric correction: disabled  (internal load constraint = disabled)
  Impulse variational defect probe: disabled
  Impulse quadratic pressure: disabled  (scale = 1)
  Added-mass stab:   disabled
  Exact BEM geometry: disabled
  Exact singular BEM: disabled
  Legacy singular SLP diagnostic: disabled
  Phi-dot blend:     0 (off)

  Solver guidance:
    - Strong coupling: use for stiff close-coupled runs; slower but more implicit.
    - Impulse scheme: use when impulse/momentum conservation or KE drift is the focus. Recommended.
    - Added-mass stab: use for higher mesh counts (ndiv > 3) to preserve stability - deprecated.
================================================
Solver starting - good luck!

Initial state:
  Body  1
    density:          0.100000
    shape axes ratio: (1.000000, 0.700000, 0.700000)
    initial KE ratio: 4.000000
    position:         (-2.500000, 0.000000, 0.000000)
    velocity:         (1.874921, 0.065520, 0.995715)
    angular velocity: (2.320966, -5.354185, -2.329000)
    orientation:      (w=0.673561, i=0.467199, j=-0.144544, k=0.554209)
  Body  2
    density:          0.100000
    shape axes ratio: (1.000000, 0.700000, 0.700000)
    initial KE ratio: 4.000000
    position:         (2.500000, 0.000000, 0.000000)
    velocity:         (1.832560, 0.064040, 0.973218)
    angular velocity: (3.209224, 0.638299, 5.363942)
    orientation:      (w=-0.711851, i=-0.328351, j=0.619428, k=-0.041984)

Preparing first step: implicit scheme, no bootstrap passes required.
First step may take longer than later steps.

First step completed in 0.297 s.

Step   100/2000    5.0% | t 5.000 | ETA 7m 0s | step 0.23s | KE 19.8533 | drift -3.96% | fluid 12.5321 | solid 7.3212
  Impulse FP iterations last/mean/max 16/15.52/17
Step   200/2000   10.0% | t 10.000 | ETA 6m 40s | step 0.23s | KE 20.2475 | drift -2.05% | fluid 12.2210 | solid 8.0265
  Impulse FP iterations last/mean/max 16/15.56/17
Step   300/2000   15.0% | t 15.000 | ETA 6m 16s | step 0.22s | KE 20.1360 | drift -2.59% | fluid 12.3712 | solid 7.7648
  Impulse FP iterations last/mean/max 15/15.51/17
Step   400/2000   20.0% | t 20.000 | ETA 5m 54s | step 0.23s | KE 20.1851 | drift -2.35% | fluid 12.2723 | solid 7.9128
  Impulse FP iterations last/mean/max 16/15.46/18
Step   500/2000   25.0% | t 25.000 | ETA 5m 32s | step 0.23s | KE 20.2028 | drift -2.26% | fluid 12.2348 | solid 7.9680
  Impulse FP iterations last/mean/max 15/15.46/18
Step   600/2000   30.0% | t 30.000 | ETA 5m 8s | step 0.23s | KE 20.2051 | drift -2.25% | fluid 12.6269 | solid 7.5783
  Impulse FP iterations last/mean/max 16/15.39/18
Step   700/2000   35.0% | t 35.000 | ETA 4m 46s | step 0.21s | KE 20.2527 | drift -2.02% | fluid 12.4057 | solid 7.8470
  Impulse FP iterations last/mean/max 15/15.38/18
Step   800/2000   40.0% | t 40.000 | ETA 4m 24s | step 0.21s | KE 20.2096 | drift -2.23% | fluid 12.6872 | solid 7.5224
  Impulse FP iterations last/mean/max 15/15.37/18
Step   900/2000   45.0% | t 45.000 | ETA 4m 1s | step 0.22s | KE 20.2193 | drift -2.18% | fluid 12.3052 | solid 7.9141
  Impulse FP iterations last/mean/max 15/15.34/18
Step  1000/2000   50.0% | t 50.000 | ETA 3m 39s | step 0.22s | KE 20.1955 | drift -2.30% | fluid 12.3992 | solid 7.7963
  Impulse FP iterations last/mean/max 15/15.34/18
Step  1100/2000   55.0% | t 55.000 | ETA 3m 17s | step 0.22s | KE 20.1966 | drift -2.29% | fluid 12.4247 | solid 7.7720
  Impulse FP iterations last/mean/max 15/15.32/18
Step  1200/2000   60.0% | t 60.000 | ETA 2m 55s | step 0.23s | KE 20.2232 | drift -2.17% | fluid 12.3322 | solid 7.8910
  Impulse FP iterations last/mean/max 16/15.32/18
Step  1300/2000   65.0% | t 65.000 | ETA 2m 33s | step 0.22s | KE 20.2120 | drift -2.22% | fluid 12.7264 | solid 7.4855
  Impulse FP iterations last/mean/max 15/15.31/18
Step  1400/2000   70.0% | t 70.000 | ETA 2m 11s | step 0.23s | KE 20.2540 | drift -2.02% | fluid 12.4440 | solid 7.8099
  Impulse FP iterations last/mean/max 16/15.30/18
Step  1500/2000   75.0% | t 75.000 | ETA 1m 49s | step 0.23s | KE 20.2088 | drift -2.23% | fluid 12.6651 | solid 7.5438
  Impulse FP iterations last/mean/max 15/15.31/18
Step  1600/2000   80.0% | t 80.000 | ETA 1m 27s | step 0.23s | KE 20.2081 | drift -2.24% | fluid 12.2955 | solid 7.9126
  Impulse FP iterations last/mean/max 16/15.29/18
Step  1700/2000   85.0% | t 85.000 | ETA 1m 5s | step 0.22s | KE 20.1953 | drift -2.30% | fluid 12.3348 | solid 7.8605
  Impulse FP iterations last/mean/max 15/15.30/18
Step  1800/2000   90.0% | t 90.000 | ETA 43s | step 0.21s | KE 20.2003 | drift -2.28% | fluid 12.4898 | solid 7.7105
  Impulse FP iterations last/mean/max 15/15.29/18
Step  1900/2000   95.0% | t 95.000 | ETA 21s | step 0.16s | KE 20.2356 | drift -2.11% | fluid 12.3446 | solid 7.8910
  Impulse FP iterations last/mean/max 15/15.29/18
Solver finished successfully - good job!
Results saved successfully.

================== Run summary ==================
  Bodies:            2
  Triangles / nodes: 256 / 516
  Timesteps:         2000  (dt = 0.05)
  Simulated time:    0 -> 100
  First-step setup:  0.297 s
  Mean time/step:    0.2153 s  (excl. first step)
  Total wall time:   7m 10s
  Impulse FP iters last/mean/max: 15 / 15.293 / 18
  Approx impulse solves/step:     15.293
  Impulse start cache hits/direct: 1999 / 1
  Impulse global drift P/H:       2.214646e-8 / 7.323639e-3
  Impulse per-body max drift P/H: 2.410727e-8 / 6.574193e-3
  CPU cores:         256 available, 8 Rayon worker thread(s)
  Started:           2026-06-24 02:06:37
  Finished:          2026-06-24 02:13:47
  Output file:       /work/e643/e643/shared/multi_ellip/studies/two_body_paper_sweeps/runs/spheroid_1_0p7_0p7/spheroid_1_0p7_0p7_rho0p1_E4_sep5_run05_impulse_noproj/multiple_body_complete.dat
================================================
