
================ Simulation setup ================
  Run label:         /work/e643/e643/shared/multi_ellip/studies/two_body_paper_sweeps/runs/spheroid_1_0p7_0p7/spheroid_1_0p7_0p7_rho10_E0p55_sep3_run01_impulse_noproj/
  Started:           2026-06-22 19:23:18
  Input file:        /work/e643/e643/shared/multi_ellip/studies/two_body_paper_sweeps/runs/spheroid_1_0p7_0p7/spheroid_1_0p7_0p7_rho10_E0p55_sep3_run01_impulse_noproj/input.txt
  Output file:       /work/e643/e643/shared/multi_ellip/studies/two_body_paper_sweeps/runs/spheroid_1_0p7_0p7/spheroid_1_0p7_0p7_rho10_E0p55_sep3_run01_impulse_noproj/multiple_body_complete.dat
  Bodies:            2
  Fluid density:     1
  Mesh:              ndiv 2 -> 256 triangles / 516 nodes
  Simulated time:    0 -> 100  (dt = 0.05, ~2000 steps)
  Output cadence:    every 1 step(s)
  Output rows:       ~2001
  Progress cadence:  every 100 step(s)
  CPU cores:         256 available, 8 Rayon worker thread(s)
  Strong coupling:   disabled
  Impulse scheme:    enabled
  Hamiltonian step:  disabled
  Hamiltonian midpt: disabled
  Variational step:  disabled
  Energy projection: disabled
  Projection particular metric: Euclidean
  Fluid KE gradient: disabled  (eps = 0.001, scale = 1, linear = 1, angular = 1)
  Fluid KE discrete gradient: disabled
  Impulse pair metric correction: disabled  (mode = pair discrete-gradient, cutoff = all pairs, inner/outer = 0/0, eps = 0.001, linear scale = 1, angular scale = 0)
  Impulse metric correction: disabled  (internal load constraint = disabled)
  Impulse variational defect probe: disabled
  Impulse quadratic pressure: disabled  (scale = 1)
  Added-mass stab:   disabled
  Exact BEM geometry: disabled
  Exact singular BEM: disabled
  Legacy singular SLP diagnostic: disabled
  Phi-dot blend:     0 (off)

  Solver guidance:
    - Strong coupling: use for stiff close-coupled runs; slower but more implicit.
    - Impulse scheme: use when impulse/momentum conservation or KE drift is the focus. Recommended.
    - Added-mass stab: use for higher mesh counts (ndiv > 3) to preserve stability - deprecated.
================================================
Solver starting - good luck!

Initial state:
  Body  1
    density:          10.000000
    shape axes ratio: (1.000000, 0.700000, 0.700000)
    initial KE ratio: 0.550000
    position:         (-1.500000, 0.000000, 0.000000)
    velocity:         (-4.961199, 2.149376, -1.985266)
    angular velocity: (-2.038998, -4.428856, 3.963097)
    orientation:      (w=0.447214, i=0.894427, j=0.000000, k=0.000000)
  Body  2
    density:          10.000000
    shape axes ratio: (1.000000, 0.700000, 0.700000)
    initial KE ratio: 0.550000
    position:         (1.500000, 0.000000, 0.000000)
    velocity:         (-4.901316, 2.123433, -1.961303)
    angular velocity: (2.612526, -5.569997, -1.276032)
    orientation:      (w=0.707107, i=0.000000, j=0.707107, k=0.000000)

Preparing first step: implicit scheme, no bootstrap passes required.
First step may take longer than later steps.

First step completed in 7.005 s.

Step   100/2000    5.0% | t 5.000 | ETA 3m 11s | step 0.10s | KE 2190.2008 | drift -1.34% | fluid 70.5485 | solid 2119.6522
  Impulse FP iterations last/mean/max 7/7.00/7
Step   200/2000   10.0% | t 10.000 | ETA 3m 1s | step 0.10s | KE 2328.7952 | drift +4.91% | fluid 62.2688 | solid 2266.5264
  Impulse FP iterations last/mean/max 7/7.00/8
Step   300/2000   15.0% | t 15.000 | ETA 2m 52s | step 0.10s | KE 2460.9582 | drift +10.86% | fluid 62.3054 | solid 2398.6527
  Impulse FP iterations last/mean/max 7/7.03/8
Step   400/2000   20.0% | t 20.000 | ETA 2m 43s | step 0.10s | KE 2465.7570 | drift +11.08% | fluid 79.8885 | solid 2385.8686
  Impulse FP iterations last/mean/max 7/7.03/8
Step   500/2000   25.0% | t 25.000 | ETA 2m 32s | step 0.10s | KE 2418.2780 | drift +8.94% | fluid 83.2894 | solid 2334.9886
  Impulse FP iterations last/mean/max 7/7.02/8
Step   600/2000   30.0% | t 30.000 | ETA 2m 22s | step 0.10s | KE 2365.9354 | drift +6.58% | fluid 85.7165 | solid 2280.2189
  Impulse FP iterations last/mean/max 7/7.02/8
Step   700/2000   35.0% | t 35.000 | ETA 2m 11s | step 0.10s | KE 2331.5228 | drift +5.03% | fluid 90.7993 | solid 2240.7236
  Impulse FP iterations last/mean/max 7/7.01/8
Step   800/2000   40.0% | t 40.000 | ETA 2m 1s | step 0.10s | KE 2325.2310 | drift +4.75% | fluid 93.8189 | solid 2231.4122
  Impulse FP iterations last/mean/max 7/7.01/8
Step   900/2000   45.0% | t 45.000 | ETA 1m 51s | step 0.10s | KE 2332.2369 | drift +5.06% | fluid 94.1892 | solid 2238.0477
  Impulse FP iterations last/mean/max 7/7.00/8
Step  1000/2000   50.0% | t 50.000 | ETA 1m 40s | step 0.10s | KE 2331.2566 | drift +5.02% | fluid 90.8522 | solid 2240.4045
  Impulse FP iterations last/mean/max 7/6.98/8
Step  1100/2000   55.0% | t 55.000 | ETA 1m 30s | step 0.10s | KE 2318.1482 | drift +4.43% | fluid 76.6231 | solid 2241.5251
  Impulse FP iterations last/mean/max 7/6.96/8
Step  1200/2000   60.0% | t 60.000 | ETA 1m 20s | step 0.10s | KE 2298.0798 | drift +3.52% | fluid 78.0916 | solid 2219.9882
  Impulse FP iterations last/mean/max 7/6.93/8
Step  1300/2000   65.0% | t 65.000 | ETA 1m 9s | step 0.09s | KE 2278.8364 | drift +2.66% | fluid 80.9777 | solid 2197.8587
  Impulse FP iterations last/mean/max 7/6.91/8
Step  1400/2000   70.0% | t 70.000 | ETA 59s | step 0.09s | KE 2263.4053 | drift +1.96% | fluid 93.9856 | solid 2169.4197
  Impulse FP iterations last/mean/max 7/6.89/8
Step  1500/2000   75.0% | t 75.000 | ETA 49s | step 0.08s | KE 2253.8583 | drift +1.53% | fluid 87.0029 | solid 2166.8554
  Impulse FP iterations last/mean/max 6/6.87/8
Step  1600/2000   80.0% | t 80.000 | ETA 39s | step 0.08s | KE 2247.0595 | drift +1.22% | fluid 82.6243 | solid 2164.4352
  Impulse FP iterations last/mean/max 6/6.86/8
Step  1700/2000   85.0% | t 85.000 | ETA 29s | step 0.08s | KE 2240.7588 | drift +0.94% | fluid 76.4749 | solid 2164.2839
  Impulse FP iterations last/mean/max 6/6.84/8
Step  1800/2000   90.0% | t 90.000 | ETA 19s | step 0.08s | KE 2233.9490 | drift +0.63% | fluid 78.7364 | solid 2155.2125
  Impulse FP iterations last/mean/max 6/6.83/8
Step  1900/2000   95.0% | t 95.000 | ETA 9s | step 0.07s | KE 2227.1604 | drift +0.33% | fluid 90.2719 | solid 2136.8885
  Impulse FP iterations last/mean/max 6/6.81/8
Solver finished successfully - good job!
Results saved successfully.

================== Run summary ==================
  Bodies:            2
  Triangles / nodes: 256 / 516
  Timesteps:         2000  (dt = 0.05)
  Simulated time:    0 -> 100
  First-step setup:  7.005 s
  Mean time/step:    0.0959 s  (excl. first step)
  Total wall time:   3m 18s
  Impulse FP iters last/mean/max: 7 / 6.804 / 8
  Approx impulse solves/step:     6.804
  Impulse start cache hits/direct: 1999 / 1
  Impulse global drift P/H:       4.626604e-9 / 2.872174e-2
  Impulse per-body max drift P/H: 6.143977e-9 / 2.095402e-2
  CPU cores:         256 available, 8 Rayon worker thread(s)
  Started:           2026-06-22 19:23:18
  Finished:          2026-06-22 19:26:37
  Output file:       /work/e643/e643/shared/multi_ellip/studies/two_body_paper_sweeps/runs/spheroid_1_0p7_0p7/spheroid_1_0p7_0p7_rho10_E0p55_sep3_run01_impulse_noproj/multiple_body_complete.dat
================================================
