
================ Simulation setup ================
  Run label:         /work/e643/e643/shared/multi_ellip/studies/two_body_paper_sweeps/runs/spheroid_1_0p7_0p7/spheroid_1_0p7_0p7_rho0p3_E30_sep8_run04_impulse_noproj/
  Started:           2026-06-24 01:52:44
  Input file:        /work/e643/e643/shared/multi_ellip/studies/two_body_paper_sweeps/runs/spheroid_1_0p7_0p7/spheroid_1_0p7_0p7_rho0p3_E30_sep8_run04_impulse_noproj/input.txt
  Output file:       /work/e643/e643/shared/multi_ellip/studies/two_body_paper_sweeps/runs/spheroid_1_0p7_0p7/spheroid_1_0p7_0p7_rho0p3_E30_sep8_run04_impulse_noproj/multiple_body_complete.dat
  Bodies:            2
  Fluid density:     1
  Mesh:              ndiv 2 -> 256 triangles / 516 nodes
  Simulated time:    0 -> 100  (dt = 0.05, ~2000 steps)
  Output cadence:    every 1 step(s)
  Output rows:       ~2001
  Progress cadence:  every 100 step(s)
  CPU cores:         256 available, 8 Rayon worker thread(s)
  Strong coupling:   disabled
  Impulse scheme:    enabled
  Hamiltonian step:  disabled
  Hamiltonian midpt: disabled
  Variational step:  disabled
  Energy projection: disabled
  Projection particular metric: Euclidean
  Fluid KE gradient: disabled  (eps = 0.001, scale = 1, linear = 1, angular = 1)
  Fluid KE discrete gradient: disabled
  Impulse pair metric correction: disabled  (mode = pair discrete-gradient, cutoff = all pairs, inner/outer = 0/0, eps = 0.001, linear scale = 1, angular scale = 0)
  Impulse metric correction: disabled  (internal load constraint = disabled)
  Impulse variational defect probe: disabled
  Impulse quadratic pressure: disabled  (scale = 1)
  Added-mass stab:   disabled
  Exact BEM geometry: disabled
  Exact singular BEM: disabled
  Legacy singular SLP diagnostic: disabled
  Phi-dot blend:     0 (off)

  Solver guidance:
    - Strong coupling: use for stiff close-coupled runs; slower but more implicit.
    - Impulse scheme: use when impulse/momentum conservation or KE drift is the focus. Recommended.
    - Added-mass stab: use for higher mesh counts (ndiv > 3) to preserve stability - deprecated.
================================================
Solver starting - good luck!

Initial state:
  Body  1
    density:          0.300000
    shape axes ratio: (1.000000, 0.700000, 0.700000)
    initial KE ratio: 30.000000
    position:         (-4.000000, 0.000000, 0.000000)
    velocity:         (-0.185479, 0.574109, 0.384546)
    angular velocity: (-4.665355, 3.371776, 2.518731)
    orientation:      (w=-0.551400, i=-0.578014, j=0.570400, k=0.191055)
  Body  2
    density:          0.300000
    shape axes ratio: (1.000000, 0.700000, 0.700000)
    initial KE ratio: 30.000000
    position:         (4.000000, 0.000000, 0.000000)
    velocity:         (-0.178396, 0.552187, 0.369863)
    angular velocity: (5.364229, -1.711317, -2.788342)
    orientation:      (w=0.448598, i=0.622050, j=0.511701, k=0.387267)

Preparing first step: implicit scheme, no bootstrap passes required.
First step may take longer than later steps.

First step completed in 0.366 s.

Step   100/2000    5.0% | t 5.000 | ETA 5m 10s | step 0.15s | KE 29.9953 | drift -0.04% | fluid 6.7156 | solid 23.2797
  Impulse FP iterations last/mean/max 11/11.31/12
Step   200/2000   10.0% | t 10.000 | ETA 4m 53s | step 0.16s | KE 29.9344 | drift -0.24% | fluid 6.7021 | solid 23.2323
  Impulse FP iterations last/mean/max 11/11.29/12
Step   300/2000   15.0% | t 15.000 | ETA 4m 37s | step 0.16s | KE 29.8096 | drift -0.66% | fluid 6.6763 | solid 23.1333
  Impulse FP iterations last/mean/max 11/11.31/12
Step   400/2000   20.0% | t 20.000 | ETA 4m 20s | step 0.15s | KE 29.6098 | drift -1.33% | fluid 6.6341 | solid 22.9758
  Impulse FP iterations last/mean/max 11/11.30/12
Step   500/2000   25.0% | t 25.000 | ETA 4m 5s | step 0.17s | KE 29.3508 | drift -2.19% | fluid 6.5819 | solid 22.7689
  Impulse FP iterations last/mean/max 11/11.33/12
Step   600/2000   30.0% | t 30.000 | ETA 3m 49s | step 0.17s | KE 29.0775 | drift -3.10% | fluid 6.5256 | solid 22.5519
  Impulse FP iterations last/mean/max 11/11.34/12
Step   700/2000   35.0% | t 35.000 | ETA 3m 33s | step 0.17s | KE 28.8455 | drift -3.87% | fluid 6.4725 | solid 22.3730
  Impulse FP iterations last/mean/max 11/11.35/12
Step   800/2000   40.0% | t 40.000 | ETA 3m 16s | step 0.15s | KE 28.6699 | drift -4.46% | fluid 6.4398 | solid 22.2301
  Impulse FP iterations last/mean/max 11/11.34/12
Step   900/2000   45.0% | t 45.000 | ETA 3m 0s | step 0.15s | KE 28.5585 | drift -4.83% | fluid 6.4091 | solid 22.1494
  Impulse FP iterations last/mean/max 11/11.33/12
Step  1000/2000   50.0% | t 50.000 | ETA 2m 43s | step 0.15s | KE 28.4921 | drift -5.05% | fluid 6.3962 | solid 22.0958
  Impulse FP iterations last/mean/max 11/11.31/12
Step  1100/2000   55.0% | t 55.000 | ETA 2m 26s | step 0.16s | KE 28.4684 | drift -5.13% | fluid 6.3853 | solid 22.0831
  Impulse FP iterations last/mean/max 11/11.30/12
Step  1200/2000   60.0% | t 60.000 | ETA 2m 10s | step 0.16s | KE 28.4618 | drift -5.15% | fluid 6.3832 | solid 22.0786
  Impulse FP iterations last/mean/max 11/11.28/12
Step  1300/2000   65.0% | t 65.000 | ETA 1m 54s | step 0.15s | KE 28.4571 | drift -5.17% | fluid 6.3779 | solid 22.0792
  Impulse FP iterations last/mean/max 11/11.27/12
Step  1400/2000   70.0% | t 70.000 | ETA 1m 37s | step 0.16s | KE 28.4561 | drift -5.17% | fluid 6.3786 | solid 22.0775
  Impulse FP iterations last/mean/max 11/11.26/12
Step  1500/2000   75.0% | t 75.000 | ETA 1m 21s | step 0.16s | KE 28.4469 | drift -5.20% | fluid 6.3788 | solid 22.0680
  Impulse FP iterations last/mean/max 11/11.25/12
Step  1600/2000   80.0% | t 80.000 | ETA 1m 5s | step 0.16s | KE 28.4292 | drift -5.26% | fluid 6.3742 | solid 22.0550
  Impulse FP iterations last/mean/max 11/11.24/12
Step  1700/2000   85.0% | t 85.000 | ETA 48s | step 0.17s | KE 28.4099 | drift -5.32% | fluid 6.3772 | solid 22.0327
  Impulse FP iterations last/mean/max 11/11.23/12
Step  1800/2000   90.0% | t 90.000 | ETA 32s | step 0.15s | KE 28.3828 | drift -5.41% | fluid 6.3662 | solid 22.0166
  Impulse FP iterations last/mean/max 11/11.23/12
Step  1900/2000   95.0% | t 95.000 | ETA 16s | step 0.15s | KE 28.3598 | drift -5.49% | fluid 6.3685 | solid 21.9913
  Impulse FP iterations last/mean/max 11/11.22/12
Solver finished successfully - good job!
Results saved successfully.

================== Run summary ==================
  Bodies:            2
  Triangles / nodes: 256 / 516
  Timesteps:         2000  (dt = 0.05)
  Simulated time:    0 -> 100
  First-step setup:  0.366 s
  Mean time/step:    0.1608 s  (excl. first step)
  Total wall time:   5m 21s
  Impulse FP iters last/mean/max: 11 / 11.210 / 12
  Approx impulse solves/step:     11.210
  Impulse start cache hits/direct: 1999 / 1
  Impulse global drift P/H:       6.970411e-8 / 2.891537e-2
  Impulse per-body max drift P/H: 1.012893e-7 / 6.308313e-3
  CPU cores:         256 available, 8 Rayon worker thread(s)
  Started:           2026-06-24 01:52:44
  Finished:          2026-06-24 01:58:06
  Output file:       /work/e643/e643/shared/multi_ellip/studies/two_body_paper_sweeps/runs/spheroid_1_0p7_0p7/spheroid_1_0p7_0p7_rho0p3_E30_sep8_run04_impulse_noproj/multiple_body_complete.dat
================================================
