
================ Simulation setup ================
  Run label:         /work/e643/e643/shared/multi_ellip/studies/two_body_paper_sweeps/runs/spheroid_1_0p7_0p7/spheroid_1_0p7_0p7_rho1_E0p55_sep11_run05_impulse_noproj/
  Started:           2026-06-24 01:34:38
  Input file:        /work/e643/e643/shared/multi_ellip/studies/two_body_paper_sweeps/runs/spheroid_1_0p7_0p7/spheroid_1_0p7_0p7_rho1_E0p55_sep11_run05_impulse_noproj/input.txt
  Output file:       /work/e643/e643/shared/multi_ellip/studies/two_body_paper_sweeps/runs/spheroid_1_0p7_0p7/spheroid_1_0p7_0p7_rho1_E0p55_sep11_run05_impulse_noproj/multiple_body_complete.dat
  Bodies:            2
  Fluid density:     1
  Mesh:              ndiv 2 -> 256 triangles / 516 nodes
  Simulated time:    0 -> 100  (dt = 0.05, ~2000 steps)
  Output cadence:    every 1 step(s)
  Output rows:       ~2001
  Progress cadence:  every 100 step(s)
  CPU cores:         256 available, 8 Rayon worker thread(s)
  Strong coupling:   disabled
  Impulse scheme:    enabled
  Hamiltonian step:  disabled
  Hamiltonian midpt: disabled
  Variational step:  disabled
  Energy projection: disabled
  Projection particular metric: Euclidean
  Fluid KE gradient: disabled  (eps = 0.001, scale = 1, linear = 1, angular = 1)
  Fluid KE discrete gradient: disabled
  Impulse pair metric correction: disabled  (mode = pair discrete-gradient, cutoff = all pairs, inner/outer = 0/0, eps = 0.001, linear scale = 1, angular scale = 0)
  Impulse metric correction: disabled  (internal load constraint = disabled)
  Impulse variational defect probe: disabled
  Impulse quadratic pressure: disabled  (scale = 1)
  Added-mass stab:   disabled
  Exact BEM geometry: disabled
  Exact singular BEM: disabled
  Legacy singular SLP diagnostic: disabled
  Phi-dot blend:     0 (off)

  Solver guidance:
    - Strong coupling: use for stiff close-coupled runs; slower but more implicit.
    - Impulse scheme: use when impulse/momentum conservation or KE drift is the focus. Recommended.
    - Added-mass stab: use for higher mesh counts (ndiv > 3) to preserve stability - deprecated.
================================================
Solver starting - good luck!

Initial state:
  Body  1
    density:          1.000000
    shape axes ratio: (1.000000, 0.700000, 0.700000)
    initial KE ratio: 0.550000
    position:         (-5.500000, 0.000000, 0.000000)
    velocity:         (-4.063629, 3.830967, -0.998533)
    angular velocity: (-2.732968, -0.244142, 5.652406)
    orientation:      (w=0.478237, i=-0.505152, j=-0.360448, k=0.621440)
  Body  2
    density:          1.000000
    shape axes ratio: (1.000000, 0.700000, 0.700000)
    initial KE ratio: 0.550000
    position:         (5.500000, 0.000000, 0.000000)
    velocity:         (-4.024085, 3.793687, -0.988816)
    angular velocity: (3.091654, 4.721428, -2.761921)
    orientation:      (w=-0.243839, i=-0.621394, j=0.744516, k=0.010392)

Preparing first step: implicit scheme, no bootstrap passes required.
First step may take longer than later steps.

First step completed in 0.255 s.

Step   100/2000    5.0% | t 5.000 | ETA 4m 12s | step 0.14s | KE 274.4026 | drift +0.04% | fluid 78.1739 | solid 196.2287
  Impulse FP iterations last/mean/max 10/9.98/11
Step   200/2000   10.0% | t 10.000 | ETA 4m 8s | step 0.14s | KE 274.4731 | drift +0.06% | fluid 75.5504 | solid 198.9227
  Impulse FP iterations last/mean/max 10/10.00/11
Step   300/2000   15.0% | t 15.000 | ETA 3m 57s | step 0.15s | KE 277.7746 | drift +1.27% | fluid 71.6624 | solid 206.1122
  Impulse FP iterations last/mean/max 10/10.00/11
Step   400/2000   20.0% | t 20.000 | ETA 3m 44s | step 0.14s | KE 279.4697 | drift +1.88% | fluid 69.3082 | solid 210.1615
  Impulse FP iterations last/mean/max 10/10.00/11
Step   500/2000   25.0% | t 25.000 | ETA 3m 31s | step 0.14s | KE 279.1455 | drift +1.77% | fluid 74.1057 | solid 205.0398
  Impulse FP iterations last/mean/max 10/9.99/11
Step   600/2000   30.0% | t 30.000 | ETA 3m 17s | step 0.12s | KE 279.4575 | drift +1.88% | fluid 78.6429 | solid 200.8146
  Impulse FP iterations last/mean/max 10/10.00/11
Step   700/2000   35.0% | t 35.000 | ETA 3m 1s | step 0.13s | KE 279.5456 | drift +1.91% | fluid 75.9956 | solid 203.5500
  Impulse FP iterations last/mean/max 10/10.00/11
Step   800/2000   40.0% | t 40.000 | ETA 2m 45s | step 0.14s | KE 279.0414 | drift +1.73% | fluid 72.5582 | solid 206.4832
  Impulse FP iterations last/mean/max 10/10.01/11
Step   900/2000   45.0% | t 45.000 | ETA 2m 31s | step 0.14s | KE 278.7486 | drift +1.62% | fluid 73.8537 | solid 204.8949
  Impulse FP iterations last/mean/max 10/10.00/11
Step  1000/2000   50.0% | t 50.000 | ETA 2m 17s | step 0.14s | KE 278.0959 | drift +1.38% | fluid 76.9375 | solid 201.1584
  Impulse FP iterations last/mean/max 10/10.00/11
Step  1100/2000   55.0% | t 55.000 | ETA 2m 4s | step 0.14s | KE 277.8218 | drift +1.28% | fluid 75.7711 | solid 202.0507
  Impulse FP iterations last/mean/max 10/10.01/11
Step  1200/2000   60.0% | t 60.000 | ETA 1m 50s | step 0.15s | KE 278.2912 | drift +1.45% | fluid 70.9382 | solid 207.3530
  Impulse FP iterations last/mean/max 10/10.00/11
Step  1300/2000   65.0% | t 65.000 | ETA 1m 37s | step 0.14s | KE 278.5073 | drift +1.53% | fluid 69.6423 | solid 208.8651
  Impulse FP iterations last/mean/max 10/10.00/11
Step  1400/2000   70.0% | t 70.000 | ETA 1m 23s | step 0.14s | KE 278.0541 | drift +1.37% | fluid 76.2867 | solid 201.7674
  Impulse FP iterations last/mean/max 10/10.00/11
Step  1500/2000   75.0% | t 75.000 | ETA 1m 9s | step 0.14s | KE 278.0252 | drift +1.36% | fluid 79.6380 | solid 198.3872
  Impulse FP iterations last/mean/max 10/9.99/11
Step  1600/2000   80.0% | t 80.000 | ETA 55s | step 0.14s | KE 278.7182 | drift +1.61% | fluid 73.1751 | solid 205.5431
  Impulse FP iterations last/mean/max 10/10.00/11
Step  1700/2000   85.0% | t 85.000 | ETA 41s | step 0.14s | KE 278.9488 | drift +1.69% | fluid 69.9044 | solid 209.0445
  Impulse FP iterations last/mean/max 10/9.99/11
Step  1800/2000   90.0% | t 90.000 | ETA 27s | step 0.14s | KE 278.5872 | drift +1.56% | fluid 75.3007 | solid 203.2864
  Impulse FP iterations last/mean/max 10/9.99/11
Step  1900/2000   95.0% | t 95.000 | ETA 13s | step 0.14s | KE 278.1036 | drift +1.39% | fluid 79.9425 | solid 198.1611
  Impulse FP iterations last/mean/max 10/9.99/11
Solver finished successfully - good job!
Results saved successfully.

================== Run summary ==================
  Bodies:            2
  Triangles / nodes: 256 / 516
  Timesteps:         2000  (dt = 0.05)
  Simulated time:    0 -> 100
  First-step setup:  0.255 s
  Mean time/step:    0.1394 s  (excl. first step)
  Total wall time:   4m 38s
  Impulse FP iters last/mean/max: 10 / 9.990 / 11
  Approx impulse solves/step:     9.991
  Impulse start cache hits/direct: 1999 / 1
  Impulse global drift P/H:       2.887443e-8 / 3.732806e-2
  Impulse per-body max drift P/H: 5.151720e-8 / 2.680195e-3
  CPU cores:         256 available, 8 Rayon worker thread(s)
  Started:           2026-06-24 01:34:38
  Finished:          2026-06-24 01:39:17
  Output file:       /work/e643/e643/shared/multi_ellip/studies/two_body_paper_sweeps/runs/spheroid_1_0p7_0p7/spheroid_1_0p7_0p7_rho1_E0p55_sep11_run05_impulse_noproj/multiple_body_complete.dat
================================================
