
================ Simulation setup ================
  Run label:         /work/e643/e643/shared/multi_ellip/studies/departing_sphericity_sweep/runs/spheroid_prolate/homogeneous/spheroid_prolate_homogeneous_eps0p001_rho1_E0p5_sep8_run06_impulse_noproj/
  Started:           2026-06-24 02:26:38
  Input file:        /work/e643/e643/shared/multi_ellip/studies/departing_sphericity_sweep/runs/spheroid_prolate/homogeneous/spheroid_prolate_homogeneous_eps0p001_rho1_E0p5_sep8_run06_impulse_noproj/input.txt
  Output file:       /work/e643/e643/shared/multi_ellip/studies/departing_sphericity_sweep/runs/spheroid_prolate/homogeneous/spheroid_prolate_homogeneous_eps0p001_rho1_E0p5_sep8_run06_impulse_noproj/multiple_body_complete.dat
  Bodies:            2
  Fluid density:     1
  Mesh:              ndiv 2 -> 256 triangles / 516 nodes
  Simulated time:    0 -> 100  (dt = 0.05, ~2000 steps)
  Output cadence:    every 1 step(s)
  Output rows:       ~2001
  Progress cadence:  every 100 step(s)
  CPU cores:         256 available, 8 Rayon worker thread(s)
  Strong coupling:   disabled
  Impulse scheme:    enabled
  Hamiltonian step:  disabled
  Hamiltonian midpt: disabled
  Variational step:  disabled
  Energy projection: disabled
  Projection particular metric: Euclidean
  Fluid KE gradient: disabled  (eps = 0.001, scale = 1, linear = 1, angular = 1)
  Fluid KE discrete gradient: disabled
  Impulse pair metric correction: disabled  (mode = pair discrete-gradient, cutoff = all pairs, inner/outer = 0/0, eps = 0.001, linear scale = 1, angular scale = 0)
  Impulse metric correction: disabled  (internal load constraint = disabled)
  Impulse variational defect probe: disabled
  Impulse quadratic pressure: disabled  (scale = 1)
  Added-mass stab:   disabled
  Exact BEM geometry: disabled
  Exact singular BEM: disabled
  Legacy singular SLP diagnostic: disabled
  Phi-dot blend:     0 (off)

  Solver guidance:
    - Strong coupling: use for stiff close-coupled runs; slower but more implicit.
    - Impulse scheme: use when impulse/momentum conservation or KE drift is the focus. Recommended.
    - Added-mass stab: use for higher mesh counts (ndiv > 3) to preserve stability - deprecated.
================================================
Solver starting - good luck!

Initial state:
  Body  1
    density:          1.000000
    shape axes ratio: (1.000000, 0.997006, 0.997006)
    initial KE ratio: 0.500000
    position:         (-4.000000, 0.000000, 0.000000)
    velocity:         (4.524623, 3.319522, -0.311780)
    angular velocity: (-3.278732, 4.124407, 3.423099)
    orientation:      (w=-0.183783, i=0.803108, j=0.420871, k=-0.379618)
  Body  2
    density:          1.000000
    shape axes ratio: (1.000000, 0.997006, 0.997006)
    initial KE ratio: 0.500000
    position:         (4.000000, 0.000000, 0.000000)
    velocity:         (4.525326, 3.320038, -0.311829)
    angular velocity: (2.581163, -4.163712, 3.934401)
    orientation:      (w=0.660287, i=-0.493756, j=0.038539, k=0.564571)

Preparing first step: implicit scheme, no bootstrap passes required.
First step may take longer than later steps.

First step completed in 0.235 s.

Step   100/2000    5.0% | t 5.000 | ETA 3m 13s | step 0.10s | KE 260.4896 | drift -3.74% | fluid 72.1439 | solid 188.3457
  Impulse FP iterations last/mean/max 8/7.91/8
Step   200/2000   10.0% | t 10.000 | ETA 2m 58s | step 0.09s | KE 253.2087 | drift -6.43% | fluid 72.1691 | solid 181.0396
  Impulse FP iterations last/mean/max 8/7.88/8
Step   300/2000   15.0% | t 15.000 | ETA 2m 48s | step 0.10s | KE 248.7792 | drift -8.07% | fluid 72.1065 | solid 176.6727
  Impulse FP iterations last/mean/max 8/7.91/8
Step   400/2000   20.0% | t 20.000 | ETA 2m 42s | step 0.12s | KE 247.1969 | drift -8.65% | fluid 72.1208 | solid 175.0760
  Impulse FP iterations last/mean/max 8/7.93/8
Step   500/2000   25.0% | t 25.000 | ETA 2m 35s | step 0.11s | KE 248.4803 | drift -8.18% | fluid 72.1541 | solid 176.3262
  Impulse FP iterations last/mean/max 8/7.93/8
Step   600/2000   30.0% | t 30.000 | ETA 2m 26s | step 0.11s | KE 252.6578 | drift -6.63% | fluid 72.1029 | solid 180.5549
  Impulse FP iterations last/mean/max 8/7.93/8
Step   700/2000   35.0% | t 35.000 | ETA 2m 17s | step 0.11s | KE 259.7403 | drift -4.02% | fluid 72.1475 | solid 187.5928
  Impulse FP iterations last/mean/max 8/7.94/8
Step   800/2000   40.0% | t 40.000 | ETA 2m 7s | step 0.11s | KE 269.7716 | drift -0.31% | fluid 72.1476 | solid 197.6240
  Impulse FP iterations last/mean/max 8/7.94/8
Step   900/2000   45.0% | t 45.000 | ETA 1m 57s | step 0.11s | KE 282.7779 | drift +4.50% | fluid 72.1489 | solid 210.6290
  Impulse FP iterations last/mean/max 8/7.95/8
Step  1000/2000   50.0% | t 50.000 | ETA 1m 47s | step 0.11s | KE 298.7917 | drift +10.41% | fluid 72.1469 | solid 226.6448
  Impulse FP iterations last/mean/max 8/7.95/8
Step  1100/2000   55.0% | t 55.000 | ETA 1m 36s | step 0.11s | KE 317.8481 | drift +17.46% | fluid 72.1072 | solid 245.7409
  Impulse FP iterations last/mean/max 8/7.95/8
Step  1200/2000   60.0% | t 60.000 | ETA 1m 26s | step 0.11s | KE 339.9560 | drift +25.62% | fluid 72.1350 | solid 267.8211
  Impulse FP iterations last/mean/max 8/7.95/8
Step  1300/2000   65.0% | t 65.000 | ETA 1m 15s | step 0.12s | KE 365.1619 | drift +34.94% | fluid 72.1307 | solid 293.0311
  Impulse FP iterations last/mean/max 8/7.95/8
Step  1400/2000   70.0% | t 70.000 | ETA 1m 4s | step 0.11s | KE 393.4796 | drift +45.40% | fluid 72.1354 | solid 321.3443
  Impulse FP iterations last/mean/max 8/7.95/8
Step  1500/2000   75.0% | t 75.000 | ETA 54s | step 0.10s | KE 424.9528 | drift +57.03% | fluid 72.0990 | solid 352.8539
  Impulse FP iterations last/mean/max 8/7.95/8
Step  1600/2000   80.0% | t 80.000 | ETA 43s | step 0.11s | KE 459.5462 | drift +69.82% | fluid 72.1730 | solid 387.3732
  Impulse FP iterations last/mean/max 8/7.95/8
Step  1700/2000   85.0% | t 85.000 | ETA 32s | step 0.11s | KE 497.3671 | drift +83.79% | fluid 72.1429 | solid 425.2242
  Impulse FP iterations last/mean/max 8/7.95/8
Step  1800/2000   90.0% | t 90.000 | ETA 21s | step 0.11s | KE 538.3860 | drift +98.95% | fluid 72.1397 | solid 466.2463
  Impulse FP iterations last/mean/max 8/7.94/8
Step  1900/2000   95.0% | t 95.000 | ETA 10s | step 0.09s | KE 582.6272 | drift +115.30% | fluid 72.1508 | solid 510.4764
  Impulse FP iterations last/mean/max 8/7.94/8
Solver finished successfully - good job!
Results saved successfully.

================== Run summary ==================
  Bodies:            2
  Triangles / nodes: 256 / 516
  Timesteps:         2000  (dt = 0.05)
  Simulated time:    0 -> 100
  First-step setup:  0.235 s
  Mean time/step:    0.1080 s  (excl. first step)
  Total wall time:   3m 36s
  Impulse FP iters last/mean/max: 8 / 7.934 / 8
  Approx impulse solves/step:     7.934
  Impulse start cache hits/direct: 1999 / 1
  Impulse global drift P/H:       4.944189e-9 / 4.204290e-2
  Impulse per-body max drift P/H: 7.062929e-9 / 4.596413e-3
  CPU cores:         256 available, 8 Rayon worker thread(s)
  Started:           2026-06-24 02:26:38
  Finished:          2026-06-24 02:30:15
  Output file:       /work/e643/e643/shared/multi_ellip/studies/departing_sphericity_sweep/runs/spheroid_prolate/homogeneous/spheroid_prolate_homogeneous_eps0p001_rho1_E0p5_sep8_run06_impulse_noproj/multiple_body_complete.dat
================================================
