
================ Simulation setup ================
  Run label:         /work/e643/e643/shared/multi_ellip/studies/two_body_paper_sweeps/runs/ellipsoid_1_0p8_0p6/ellipsoid_1_0p8_0p6_rho10_E30_sep5_run03_impulse_noproj/
  Started:           2026-06-24 01:21:21
  Input file:        /work/e643/e643/shared/multi_ellip/studies/two_body_paper_sweeps/runs/ellipsoid_1_0p8_0p6/ellipsoid_1_0p8_0p6_rho10_E30_sep5_run03_impulse_noproj/input.txt
  Output file:       /work/e643/e643/shared/multi_ellip/studies/two_body_paper_sweeps/runs/ellipsoid_1_0p8_0p6/ellipsoid_1_0p8_0p6_rho10_E30_sep5_run03_impulse_noproj/multiple_body_complete.dat
  Bodies:            2
  Fluid density:     1
  Mesh:              ndiv 2 -> 256 triangles / 516 nodes
  Simulated time:    0 -> 100  (dt = 0.05, ~2000 steps)
  Output cadence:    every 1 step(s)
  Output rows:       ~2001
  Progress cadence:  every 100 step(s)
  CPU cores:         256 available, 8 Rayon worker thread(s)
  Strong coupling:   disabled
  Impulse scheme:    enabled
  Hamiltonian step:  disabled
  Hamiltonian midpt: disabled
  Variational step:  disabled
  Energy projection: disabled
  Projection particular metric: Euclidean
  Fluid KE gradient: disabled  (eps = 0.001, scale = 1, linear = 1, angular = 1)
  Fluid KE discrete gradient: disabled
  Impulse pair metric correction: disabled  (mode = pair discrete-gradient, cutoff = all pairs, inner/outer = 0/0, eps = 0.001, linear scale = 1, angular scale = 0)
  Impulse metric correction: disabled  (internal load constraint = disabled)
  Impulse variational defect probe: disabled
  Impulse quadratic pressure: disabled  (scale = 1)
  Added-mass stab:   disabled
  Exact BEM geometry: disabled
  Exact singular BEM: disabled
  Legacy singular SLP diagnostic: disabled
  Phi-dot blend:     0 (off)

  Solver guidance:
    - Strong coupling: use for stiff close-coupled runs; slower but more implicit.
    - Impulse scheme: use when impulse/momentum conservation or KE drift is the focus. Recommended.
    - Added-mass stab: use for higher mesh counts (ndiv > 3) to preserve stability - deprecated.
================================================
Solver starting - good luck!

Initial state:
  Body  1
    density:          10.000000
    shape axes ratio: (1.000000, 0.800000, 0.600000)
    initial KE ratio: 30.000000
    position:         (-2.500000, 0.000000, 0.000000)
    velocity:         (0.593150, 0.343276, 0.470342)
    angular velocity: (0.335720, -2.018221, 5.940749)
    orientation:      (w=0.994879, i=0.026350, j=0.013245, k=-0.096678)
  Body  2
    density:          10.000000
    shape axes ratio: (1.000000, 0.800000, 0.600000)
    initial KE ratio: 30.000000
    position:         (2.500000, 0.000000, 0.000000)
    velocity:         (0.545201, 0.315526, 0.432320)
    angular velocity: (3.322352, -3.781883, -3.760021)
    orientation:      (w=0.409193, i=-0.877067, j=-0.198275, k=0.154926)

Preparing first step: implicit scheme, no bootstrap passes required.
First step may take longer than later steps.

First step completed in 0.320 s.

Step   100/2000    5.0% | t 5.000 | ETA 3m 18s | step 0.10s | KE 837.0682 | drift -0.11% | fluid 5.7454 | solid 831.3227
  Impulse FP iterations last/mean/max 7/7.26/8
Step   200/2000   10.0% | t 10.000 | ETA 3m 9s | step 0.11s | KE 835.9281 | drift -0.25% | fluid 6.4708 | solid 829.4573
  Impulse FP iterations last/mean/max 8/7.31/8
Step   300/2000   15.0% | t 15.000 | ETA 2m 59s | step 0.10s | KE 834.7399 | drift -0.39% | fluid 9.5587 | solid 825.1812
  Impulse FP iterations last/mean/max 7/7.35/8
Step   400/2000   20.0% | t 20.000 | ETA 2m 49s | step 0.09s | KE 833.5142 | drift -0.54% | fluid 9.1176 | solid 824.3966
  Impulse FP iterations last/mean/max 7/7.37/8
Step   500/2000   25.0% | t 25.000 | ETA 2m 38s | step 0.10s | KE 832.1943 | drift -0.70% | fluid 8.9678 | solid 823.2265
  Impulse FP iterations last/mean/max 7/7.37/8
Step   600/2000   30.0% | t 30.000 | ETA 2m 27s | step 0.12s | KE 831.1067 | drift -0.83% | fluid 4.7821 | solid 826.3246
  Impulse FP iterations last/mean/max 8/7.37/8
Step   700/2000   35.0% | t 35.000 | ETA 2m 17s | step 0.10s | KE 830.0268 | drift -0.96% | fluid 8.2376 | solid 821.7892
  Impulse FP iterations last/mean/max 7/7.37/8
Step   800/2000   40.0% | t 40.000 | ETA 2m 6s | step 0.10s | KE 829.4076 | drift -1.03% | fluid 9.2053 | solid 820.2023
  Impulse FP iterations last/mean/max 7/7.38/8
Step   900/2000   45.0% | t 45.000 | ETA 1m 56s | step 0.11s | KE 828.9944 | drift -1.08% | fluid 8.6348 | solid 820.3596
  Impulse FP iterations last/mean/max 8/7.38/8
Step  1000/2000   50.0% | t 50.000 | ETA 1m 45s | step 0.12s | KE 829.0506 | drift -1.07% | fluid 5.0337 | solid 824.0169
  Impulse FP iterations last/mean/max 8/7.38/8
Step  1100/2000   55.0% | t 55.000 | ETA 1m 35s | step 0.10s | KE 829.3388 | drift -1.04% | fluid 9.3538 | solid 819.9850
  Impulse FP iterations last/mean/max 7/7.38/8
Step  1200/2000   60.0% | t 60.000 | ETA 1m 24s | step 0.10s | KE 829.8546 | drift -0.98% | fluid 9.3854 | solid 820.4692
  Impulse FP iterations last/mean/max 7/7.38/8
Step  1300/2000   65.0% | t 65.000 | ETA 1m 14s | step 0.10s | KE 830.5458 | drift -0.89% | fluid 6.4000 | solid 824.1458
  Impulse FP iterations last/mean/max 7/7.39/8
Step  1400/2000   70.0% | t 70.000 | ETA 1m 3s | step 0.10s | KE 831.2580 | drift -0.81% | fluid 6.8570 | solid 824.4010
  Impulse FP iterations last/mean/max 7/7.39/8
Step  1500/2000   75.0% | t 75.000 | ETA 52s | step 0.11s | KE 831.9463 | drift -0.73% | fluid 9.3494 | solid 822.5970
  Impulse FP iterations last/mean/max 7/7.39/8
Step  1600/2000   80.0% | t 80.000 | ETA 42s | step 0.12s | KE 832.5638 | drift -0.65% | fluid 9.1349 | solid 823.4290
  Impulse FP iterations last/mean/max 8/7.39/8
Step  1700/2000   85.0% | t 85.000 | ETA 31s | step 0.11s | KE 833.0869 | drift -0.59% | fluid 7.4749 | solid 825.6120
  Impulse FP iterations last/mean/max 8/7.39/8
Step  1800/2000   90.0% | t 90.000 | ETA 21s | step 0.10s | KE 833.6063 | drift -0.53% | fluid 5.1736 | solid 828.4326
  Impulse FP iterations last/mean/max 7/7.38/8
Step  1900/2000   95.0% | t 95.000 | ETA 10s | step 0.07s | KE 833.9829 | drift -0.48% | fluid 8.6100 | solid 825.3729
  Impulse FP iterations last/mean/max 7/7.38/8
Solver finished successfully - good job!
Results saved successfully.

================== Run summary ==================
  Bodies:            2
  Triangles / nodes: 256 / 516
  Timesteps:         2000  (dt = 0.05)
  Simulated time:    0 -> 100
  First-step setup:  0.320 s
  Mean time/step:    0.1035 s  (excl. first step)
  Total wall time:   3m 27s
  Impulse FP iters last/mean/max: 8 / 7.378 / 8
  Approx impulse solves/step:     7.378
  Impulse start cache hits/direct: 1999 / 1
  Impulse global drift P/H:       6.257983e-9 / 4.336314e-3
  Impulse per-body max drift P/H: 1.702249e-8 / 6.046465e-3
  CPU cores:         256 available, 8 Rayon worker thread(s)
  Started:           2026-06-24 01:21:21
  Finished:          2026-06-24 01:24:49
  Output file:       /work/e643/e643/shared/multi_ellip/studies/two_body_paper_sweeps/runs/ellipsoid_1_0p8_0p6/ellipsoid_1_0p8_0p6_rho10_E30_sep5_run03_impulse_noproj/multiple_body_complete.dat
================================================
