
================ Simulation setup ================
  Run label:         /work/e643/e643/shared/multi_ellip/studies/two_body_paper_sweeps/runs/spheroid_1_0p7_0p7/spheroid_1_0p7_0p7_rho10_E4_sep5_run01_impulse_noproj/
  Started:           2026-06-22 19:23:17
  Input file:        /work/e643/e643/shared/multi_ellip/studies/two_body_paper_sweeps/runs/spheroid_1_0p7_0p7/spheroid_1_0p7_0p7_rho10_E4_sep5_run01_impulse_noproj/input.txt
  Output file:       /work/e643/e643/shared/multi_ellip/studies/two_body_paper_sweeps/runs/spheroid_1_0p7_0p7/spheroid_1_0p7_0p7_rho10_E4_sep5_run01_impulse_noproj/multiple_body_complete.dat
  Bodies:            2
  Fluid density:     1
  Mesh:              ndiv 2 -> 256 triangles / 516 nodes
  Simulated time:    0 -> 100  (dt = 0.05, ~2000 steps)
  Output cadence:    every 1 step(s)
  Output rows:       ~2001
  Progress cadence:  every 100 step(s)
  CPU cores:         256 available, 8 Rayon worker thread(s)
  Strong coupling:   disabled
  Impulse scheme:    enabled
  Hamiltonian step:  disabled
  Hamiltonian midpt: disabled
  Variational step:  disabled
  Energy projection: disabled
  Projection particular metric: Euclidean
  Fluid KE gradient: disabled  (eps = 0.001, scale = 1, linear = 1, angular = 1)
  Fluid KE discrete gradient: disabled
  Impulse pair metric correction: disabled  (mode = pair discrete-gradient, cutoff = all pairs, inner/outer = 0/0, eps = 0.001, linear scale = 1, angular scale = 0)
  Impulse metric correction: disabled  (internal load constraint = disabled)
  Impulse variational defect probe: disabled
  Impulse quadratic pressure: disabled  (scale = 1)
  Added-mass stab:   disabled
  Exact BEM geometry: disabled
  Exact singular BEM: disabled
  Legacy singular SLP diagnostic: disabled
  Phi-dot blend:     0 (off)

  Solver guidance:
    - Strong coupling: use for stiff close-coupled runs; slower but more implicit.
    - Impulse scheme: use when impulse/momentum conservation or KE drift is the focus. Recommended.
    - Added-mass stab: use for higher mesh counts (ndiv > 3) to preserve stability - deprecated.
================================================
Solver starting - good luck!

Initial state:
  Body  1
    density:          10.000000
    shape axes ratio: (1.000000, 0.700000, 0.700000)
    initial KE ratio: 4.000000
    position:         (-2.500000, 0.000000, 0.000000)
    velocity:         (0.521824, -0.444916, -2.011344)
    angular velocity: (2.296219, 4.316698, 3.946127)
    orientation:      (w=0.447214, i=0.894427, j=0.000000, k=0.000000)
  Body  2
    density:          10.000000
    shape axes ratio: (1.000000, 0.700000, 0.700000)
    initial KE ratio: 4.000000
    position:         (2.500000, 0.000000, 0.000000)
    velocity:         (0.533852, -0.455171, -2.057705)
    angular velocity: (-0.374312, -1.254334, -6.145320)
    orientation:      (w=0.707107, i=0.000000, j=0.707107, k=0.000000)

Preparing first step: implicit scheme, no bootstrap passes required.
First step may take longer than later steps.

First step completed in 7.002 s.

Step   100/2000    5.0% | t 5.000 | ETA 2m 59s | step 0.09s | KE 849.9901 | drift -0.18% | fluid 12.1044 | solid 837.8857
  Impulse FP iterations last/mean/max 7/6.89/8
Step   200/2000   10.0% | t 10.000 | ETA 2m 52s | step 0.10s | KE 848.1968 | drift -0.39% | fluid 11.9515 | solid 836.2453
  Impulse FP iterations last/mean/max 7/6.89/8
Step   300/2000   15.0% | t 15.000 | ETA 2m 42s | step 0.09s | KE 846.2066 | drift -0.62% | fluid 13.5911 | solid 832.6155
  Impulse FP iterations last/mean/max 7/6.89/8
Step   400/2000   20.0% | t 20.000 | ETA 2m 28s | step 0.08s | KE 844.1533 | drift -0.86% | fluid 12.1664 | solid 831.9869
  Impulse FP iterations last/mean/max 6/6.87/8
Step   500/2000   25.0% | t 25.000 | ETA 2m 17s | step 0.09s | KE 842.0305 | drift -1.11% | fluid 13.1160 | solid 828.9145
  Impulse FP iterations last/mean/max 7/6.86/8
Step   600/2000   30.0% | t 30.000 | ETA 2m 9s | step 0.08s | KE 839.9553 | drift -1.36% | fluid 11.8096 | solid 828.1457
  Impulse FP iterations last/mean/max 6/6.85/8
Step   700/2000   35.0% | t 35.000 | ETA 2m 1s | step 0.12s | KE 838.0109 | drift -1.59% | fluid 13.1712 | solid 824.8397
  Impulse FP iterations last/mean/max 8/6.83/8
Step   800/2000   40.0% | t 40.000 | ETA 1m 52s | step 0.09s | KE 836.4304 | drift -1.77% | fluid 12.1047 | solid 824.3257
  Impulse FP iterations last/mean/max 6/6.82/8
Step   900/2000   45.0% | t 45.000 | ETA 1m 43s | step 0.10s | KE 835.0880 | drift -1.93% | fluid 12.9933 | solid 822.0948
  Impulse FP iterations last/mean/max 7/6.81/8
Step  1000/2000   50.0% | t 50.000 | ETA 1m 34s | step 0.08s | KE 834.1004 | drift -2.05% | fluid 11.6554 | solid 822.4449
  Impulse FP iterations last/mean/max 6/6.81/8
Step  1100/2000   55.0% | t 55.000 | ETA 1m 25s | step 0.11s | KE 833.4580 | drift -2.12% | fluid 13.4498 | solid 820.0081
  Impulse FP iterations last/mean/max 8/6.81/8
Step  1200/2000   60.0% | t 60.000 | ETA 1m 15s | step 0.08s | KE 833.2501 | drift -2.15% | fluid 12.2206 | solid 821.0294
  Impulse FP iterations last/mean/max 6/6.81/8
Step  1300/2000   65.0% | t 65.000 | ETA 1m 6s | step 0.10s | KE 833.1958 | drift -2.15% | fluid 12.4434 | solid 820.7524
  Impulse FP iterations last/mean/max 7/6.80/8
Step  1400/2000   70.0% | t 70.000 | ETA 57s | step 0.10s | KE 833.4349 | drift -2.12% | fluid 11.6026 | solid 821.8323
  Impulse FP iterations last/mean/max 7/6.80/8
Step  1500/2000   75.0% | t 75.000 | ETA 47s | step 0.12s | KE 833.8280 | drift -2.08% | fluid 13.6216 | solid 820.2064
  Impulse FP iterations last/mean/max 8/6.80/8
Step  1600/2000   80.0% | t 80.000 | ETA 38s | step 0.09s | KE 834.4314 | drift -2.01% | fluid 12.6784 | solid 821.7530
  Impulse FP iterations last/mean/max 7/6.80/8
Step  1700/2000   85.0% | t 85.000 | ETA 28s | step 0.09s | KE 835.0295 | drift -1.94% | fluid 11.8192 | solid 823.2103
  Impulse FP iterations last/mean/max 7/6.79/8
Step  1800/2000   90.0% | t 90.000 | ETA 19s | step 0.10s | KE 835.7210 | drift -1.86% | fluid 11.8427 | solid 823.8783
  Impulse FP iterations last/mean/max 7/6.79/8
Step  1900/2000   95.0% | t 95.000 | ETA 9s | step 0.08s | KE 836.4410 | drift -1.77% | fluid 13.4834 | solid 822.9576
  Impulse FP iterations last/mean/max 7/6.79/8
Solver finished successfully - good job!
Results saved successfully.

================== Run summary ==================
  Bodies:            2
  Triangles / nodes: 256 / 516
  Timesteps:         2000  (dt = 0.05)
  Simulated time:    0 -> 100
  First-step setup:  7.002 s
  Mean time/step:    0.0942 s  (excl. first step)
  Total wall time:   3m 15s
  Impulse FP iters last/mean/max: 8 / 6.788 / 8
  Approx impulse solves/step:     6.789
  Impulse start cache hits/direct: 1999 / 1
  Impulse global drift P/H:       4.310631e-9 / 2.849530e-2
  Impulse per-body max drift P/H: 6.796391e-9 / 7.214582e-3
  CPU cores:         256 available, 8 Rayon worker thread(s)
  Started:           2026-06-22 19:23:17
  Finished:          2026-06-22 19:26:34
  Output file:       /work/e643/e643/shared/multi_ellip/studies/two_body_paper_sweeps/runs/spheroid_1_0p7_0p7/spheroid_1_0p7_0p7_rho10_E4_sep5_run01_impulse_noproj/multiple_body_complete.dat
================================================
