
================ Simulation setup ================
  Run label:         /work/e643/e643/shared/multi_ellip/studies/departing_sphericity_sweep/runs/triaxial/homogeneous/triaxial_homogeneous_eps0_rho1_E0p5_sep8_run07_impulse_noproj/
  Started:           2026-06-24 02:23:18
  Input file:        /work/e643/e643/shared/multi_ellip/studies/departing_sphericity_sweep/runs/triaxial/homogeneous/triaxial_homogeneous_eps0_rho1_E0p5_sep8_run07_impulse_noproj/input.txt
  Output file:       /work/e643/e643/shared/multi_ellip/studies/departing_sphericity_sweep/runs/triaxial/homogeneous/triaxial_homogeneous_eps0_rho1_E0p5_sep8_run07_impulse_noproj/multiple_body_complete.dat
  Bodies:            2
  Fluid density:     1
  Mesh:              ndiv 2 -> 256 triangles / 516 nodes
  Simulated time:    0 -> 100  (dt = 0.05, ~2000 steps)
  Output cadence:    every 1 step(s)
  Output rows:       ~2001
  Progress cadence:  every 100 step(s)
  CPU cores:         256 available, 8 Rayon worker thread(s)
  Strong coupling:   disabled
  Impulse scheme:    enabled
  Hamiltonian step:  disabled
  Hamiltonian midpt: disabled
  Variational step:  disabled
  Energy projection: disabled
  Projection particular metric: Euclidean
  Fluid KE gradient: disabled  (eps = 0.001, scale = 1, linear = 1, angular = 1)
  Fluid KE discrete gradient: disabled
  Impulse pair metric correction: disabled  (mode = pair discrete-gradient, cutoff = all pairs, inner/outer = 0/0, eps = 0.001, linear scale = 1, angular scale = 0)
  Impulse metric correction: disabled  (internal load constraint = disabled)
  Impulse variational defect probe: disabled
  Impulse quadratic pressure: disabled  (scale = 1)
  Added-mass stab:   disabled
  Exact BEM geometry: disabled
  Exact singular BEM: disabled
  Legacy singular SLP diagnostic: disabled
  Phi-dot blend:     0 (off)

  Solver guidance:
    - Strong coupling: use for stiff close-coupled runs; slower but more implicit.
    - Impulse scheme: use when impulse/momentum conservation or KE drift is the focus. Recommended.
    - Added-mass stab: use for higher mesh counts (ndiv > 3) to preserve stability - deprecated.
================================================
Solver starting - good luck!

Initial state:
  Body  1
    density:          1.000000
    shape axes ratio: (1.000000, 1.000000, 1.000000)
    initial KE ratio: 0.500000
    position:         (-4.000000, 0.000000, 0.000000)
    velocity:         (-5.166629, 1.480329, -1.642349)
    angular velocity: (2.900217, -3.837443, -4.042424)
    orientation:      (w=0.658684, i=0.257788, j=0.120671, k=-0.696505)
  Body  2
    density:          1.000000
    shape axes ratio: (1.000000, 1.000000, 1.000000)
    initial KE ratio: 0.500000
    position:         (4.000000, 0.000000, 0.000000)
    velocity:         (-5.166629, 1.480329, -1.642349)
    angular velocity: (5.561019, -1.936220, 2.191926)
    orientation:      (w=-0.540491, i=-0.629452, j=-0.217427, k=0.514184)

Preparing first step: implicit scheme, no bootstrap passes required.
First step may take longer than later steps.

First step completed in 0.253 s.

Step   100/2000    5.0% | t 5.000 | ETA 2m 39s | step 0.08s | KE 264.7419 | drift -2.13% | fluid 72.0550 | solid 192.6869
  Impulse FP iterations last/mean/max 6/5.99/6
Step   200/2000   10.0% | t 10.000 | ETA 2m 29s | step 0.08s | KE 260.6767 | drift -3.63% | fluid 72.0550 | solid 188.6217
  Impulse FP iterations last/mean/max 6/5.99/6
Step   300/2000   15.0% | t 15.000 | ETA 2m 20s | step 0.09s | KE 258.2997 | drift -4.51% | fluid 72.0550 | solid 186.2447
  Impulse FP iterations last/mean/max 6/5.99/6
Step   400/2000   20.0% | t 20.000 | ETA 2m 12s | step 0.09s | KE 257.6108 | drift -4.76% | fluid 72.0550 | solid 185.5558
  Impulse FP iterations last/mean/max 6/5.99/6
Step   500/2000   25.0% | t 25.000 | ETA 2m 4s | step 0.08s | KE 258.6102 | drift -4.39% | fluid 72.0550 | solid 186.5552
  Impulse FP iterations last/mean/max 6/5.99/6
Step   600/2000   30.0% | t 30.000 | ETA 1m 55s | step 0.09s | KE 261.2980 | drift -3.40% | fluid 72.0550 | solid 189.2430
  Impulse FP iterations last/mean/max 6/5.98/6
Step   700/2000   35.0% | t 35.000 | ETA 1m 47s | step 0.09s | KE 265.6743 | drift -1.78% | fluid 72.0550 | solid 193.6193
  Impulse FP iterations last/mean/max 6/5.98/6
Step   800/2000   40.0% | t 40.000 | ETA 1m 39s | step 0.08s | KE 271.7391 | drift +0.46% | fluid 72.0550 | solid 199.6841
  Impulse FP iterations last/mean/max 6/5.98/6
Step   900/2000   45.0% | t 45.000 | ETA 1m 31s | step 0.09s | KE 279.4921 | drift +3.33% | fluid 72.0550 | solid 207.4371
  Impulse FP iterations last/mean/max 6/5.98/6
Step  1000/2000   50.0% | t 50.000 | ETA 1m 22s | step 0.08s | KE 288.9339 | drift +6.82% | fluid 72.0550 | solid 216.8789
  Impulse FP iterations last/mean/max 6/5.99/6
Step  1100/2000   55.0% | t 55.000 | ETA 1m 14s | step 0.07s | KE 300.0639 | drift +10.93% | fluid 72.0550 | solid 228.0089
  Impulse FP iterations last/mean/max 5/5.98/6
Step  1200/2000   60.0% | t 60.000 | ETA 1m 6s | step 0.07s | KE 312.8823 | drift +15.67% | fluid 72.0550 | solid 240.8272
  Impulse FP iterations last/mean/max 6/5.97/6
Step  1300/2000   65.0% | t 65.000 | ETA 57s | step 0.09s | KE 327.3890 | drift +21.03% | fluid 72.0550 | solid 255.3340
  Impulse FP iterations last/mean/max 6/5.95/6
Step  1400/2000   70.0% | t 70.000 | ETA 49s | step 0.06s | KE 343.5840 | drift +27.02% | fluid 72.0551 | solid 271.5289
  Impulse FP iterations last/mean/max 5/5.92/6
Step  1500/2000   75.0% | t 75.000 | ETA 40s | step 0.07s | KE 361.4672 | drift +33.63% | fluid 72.0551 | solid 289.4121
  Impulse FP iterations last/mean/max 6/5.89/6
Step  1600/2000   80.0% | t 80.000 | ETA 31s | step 0.07s | KE 381.0385 | drift +40.87% | fluid 72.0551 | solid 308.9834
  Impulse FP iterations last/mean/max 5/5.86/6
Step  1700/2000   85.0% | t 85.000 | ETA 23s | step 0.08s | KE 402.2976 | drift +48.73% | fluid 72.0551 | solid 330.2425
  Impulse FP iterations last/mean/max 6/5.83/6
Step  1800/2000   90.0% | t 90.000 | ETA 15s | step 0.08s | KE 425.2449 | drift +57.21% | fluid 72.0551 | solid 353.1898
  Impulse FP iterations last/mean/max 6/5.80/6
Step  1900/2000   95.0% | t 95.000 | ETA 7s | step 0.07s | KE 449.8802 | drift +66.32% | fluid 72.0551 | solid 377.8251
  Impulse FP iterations last/mean/max 5/5.77/6
Solver finished successfully - good job!
Results saved successfully.

================== Run summary ==================
  Bodies:            2
  Triangles / nodes: 256 / 516
  Timesteps:         2000  (dt = 0.05)
  Simulated time:    0 -> 100
  First-step setup:  0.253 s
  Mean time/step:    0.0779 s  (excl. first step)
  Total wall time:   2m 35s
  Impulse FP iters last/mean/max: 5 / 5.744 / 6
  Approx impulse solves/step:     5.744
  Impulse start cache hits/direct: 1999 / 1
  Impulse global drift P/H:       1.467965e-9 / 2.939194e-2
  Impulse per-body max drift P/H: 2.439653e-9 / 7.679852e-3
  CPU cores:         256 available, 8 Rayon worker thread(s)
  Started:           2026-06-24 02:23:18
  Finished:          2026-06-24 02:25:55
  Output file:       /work/e643/e643/shared/multi_ellip/studies/departing_sphericity_sweep/runs/triaxial/homogeneous/triaxial_homogeneous_eps0_rho1_E0p5_sep8_run07_impulse_noproj/multiple_body_complete.dat
================================================
