
================ Simulation setup ================
  Run label:         /work/e643/e643/shared/multi_ellip/studies/departing_sphericity_sweep/runs/spheroid_oblate/homogeneous/spheroid_oblate_homogeneous_eps1_rho1_E0p5_sep8_run10_impulse_noproj/
  Started:           2026-06-24 02:38:57
  Input file:        /work/e643/e643/shared/multi_ellip/studies/departing_sphericity_sweep/runs/spheroid_oblate/homogeneous/spheroid_oblate_homogeneous_eps1_rho1_E0p5_sep8_run10_impulse_noproj/input.txt
  Output file:       /work/e643/e643/shared/multi_ellip/studies/departing_sphericity_sweep/runs/spheroid_oblate/homogeneous/spheroid_oblate_homogeneous_eps1_rho1_E0p5_sep8_run10_impulse_noproj/multiple_body_complete.dat
  Bodies:            2
  Fluid density:     1
  Mesh:              ndiv 2 -> 256 triangles / 516 nodes
  Simulated time:    0 -> 100  (dt = 0.05, ~2000 steps)
  Output cadence:    every 1 step(s)
  Output rows:       ~2001
  Progress cadence:  every 100 step(s)
  CPU cores:         256 available, 8 Rayon worker thread(s)
  Strong coupling:   disabled
  Impulse scheme:    enabled
  Hamiltonian step:  disabled
  Hamiltonian midpt: disabled
  Variational step:  disabled
  Energy projection: disabled
  Projection particular metric: Euclidean
  Fluid KE gradient: disabled  (eps = 0.001, scale = 1, linear = 1, angular = 1)
  Fluid KE discrete gradient: disabled
  Impulse pair metric correction: disabled  (mode = pair discrete-gradient, cutoff = all pairs, inner/outer = 0/0, eps = 0.001, linear scale = 1, angular scale = 0)
  Impulse metric correction: disabled  (internal load constraint = disabled)
  Impulse variational defect probe: disabled
  Impulse quadratic pressure: disabled  (scale = 1)
  Added-mass stab:   disabled
  Exact BEM geometry: disabled
  Exact singular BEM: disabled
  Legacy singular SLP diagnostic: disabled
  Phi-dot blend:     0 (off)

  Solver guidance:
    - Strong coupling: use for stiff close-coupled runs; slower but more implicit.
    - Impulse scheme: use when impulse/momentum conservation or KE drift is the focus. Recommended.
    - Added-mass stab: use for higher mesh counts (ndiv > 3) to preserve stability - deprecated.
================================================
Solver starting - good luck!

Initial state:
  Body  1
    density:          1.000000
    shape axes ratio: (1.000000, 1.000000, 0.125000)
    initial KE ratio: 0.500000
    position:         (-4.000000, 0.000000, 0.000000)
    velocity:         (-5.817749, 1.391426, 5.533947)
    angular velocity: (-4.837038, -3.827547, 1.196399)
    orientation:      (w=0.558869, i=-0.398312, j=0.645929, k=-0.334349)
  Body  2
    density:          1.000000
    shape axes ratio: (1.000000, 1.000000, 0.125000)
    initial KE ratio: 0.500000
    position:         (4.000000, 0.000000, 0.000000)
    velocity:         (-5.741176, 1.373112, 5.461110)
    angular velocity: (2.082850, -5.900116, -0.573396)
    orientation:      (w=-0.397018, i=-0.264839, j=-0.582401, k=-0.658062)

Preparing first step: implicit scheme, no bootstrap passes required.
First step may take longer than later steps.

First step completed in 0.385 s.

Step   100/2000    5.0% | t 5.000 | ETA 9m 41s | step 0.31s | KE 1333.1825 | drift -0.15% | fluid 712.7287 | solid 620.4537
  Impulse FP iterations last/mean/max 21/19.97/30
Step   200/2000   10.0% | t 10.000 | ETA 9m 8s | step 0.30s | KE 1334.5776 | drift -0.04% | fluid 674.5225 | solid 660.0551
  Impulse FP iterations last/mean/max 19/19.98/30
Step   300/2000   15.0% | t 15.000 | ETA 8m 38s | step 0.31s | KE 1328.7345 | drift -0.48% | fluid 950.2609 | solid 378.4736
  Impulse FP iterations last/mean/max 20/20.04/30
Step   400/2000   20.0% | t 20.000 | ETA 8m 7s | step 0.26s | KE 1334.5690 | drift -0.05% | fluid 667.9637 | solid 666.6053
  Impulse FP iterations last/mean/max 18/20.07/30
Step   500/2000   25.0% | t 25.000 | ETA 7m 31s | step 0.31s | KE 1334.7481 | drift -0.03% | fluid 673.2432 | solid 661.5049
  Impulse FP iterations last/mean/max 24/20.09/30
Step   600/2000   30.0% | t 30.000 | ETA 6m 41s | step 0.20s | KE 1328.0889 | drift -0.53% | fluid 970.5829 | solid 357.5060
  Impulse FP iterations last/mean/max 21/20.12/30
Step   700/2000   35.0% | t 35.000 | ETA 5m 55s | step 0.18s | KE 1334.8717 | drift -0.02% | fluid 652.5647 | solid 682.3070
  Impulse FP iterations last/mean/max 19/20.11/30
Step   800/2000   40.0% | t 40.000 | ETA 5m 15s | step 0.19s | KE 1334.2381 | drift -0.07% | fluid 695.3052 | solid 638.9329
  Impulse FP iterations last/mean/max 20/20.16/30
Step   900/2000   45.0% | t 45.000 | ETA 4m 40s | step 0.18s | KE 1329.4100 | drift -0.43% | fluid 935.2958 | solid 394.1142
  Impulse FP iterations last/mean/max 19/20.14/30
Step  1000/2000   50.0% | t 50.000 | ETA 4m 8s | step 0.18s | KE 1334.6805 | drift -0.04% | fluid 662.5854 | solid 672.0951
  Impulse FP iterations last/mean/max 19/20.19/30
Step  1100/2000   55.0% | t 55.000 | ETA 3m 39s | step 0.18s | KE 1332.9413 | drift -0.17% | fluid 742.5996 | solid 590.3417
  Impulse FP iterations last/mean/max 18/20.18/30
Step  1200/2000   60.0% | t 60.000 | ETA 3m 11s | step 0.20s | KE 1331.7235 | drift -0.26% | fluid 857.4007 | solid 474.3227
  Impulse FP iterations last/mean/max 21/20.17/30
Step  1300/2000   65.0% | t 65.000 | ETA 2m 44s | step 0.17s | KE 1334.2467 | drift -0.07% | fluid 688.8608 | solid 645.3859
  Impulse FP iterations last/mean/max 18/20.18/30
Step  1400/2000   70.0% | t 70.000 | ETA 2m 19s | step 0.18s | KE 1331.1009 | drift -0.31% | fluid 805.9744 | solid 525.1266
  Impulse FP iterations last/mean/max 19/20.18/30
Step  1500/2000   75.0% | t 75.000 | ETA 1m 54s | step 0.20s | KE 1333.6607 | drift -0.11% | fluid 762.1929 | solid 571.4678
  Impulse FP iterations last/mean/max 22/20.16/30
Step  1600/2000   80.0% | t 80.000 | ETA 1m 30s | step 0.18s | KE 1333.8655 | drift -0.10% | fluid 722.3968 | solid 611.4687
  Impulse FP iterations last/mean/max 19/20.16/30
Step  1700/2000   85.0% | t 85.000 | ETA 1m 7s | step 0.19s | KE 1329.5298 | drift -0.42% | fluid 866.1635 | solid 463.3663
  Impulse FP iterations last/mean/max 21/20.15/30
Step  1800/2000   90.0% | t 90.000 | ETA 44s | step 0.18s | KE 1334.6462 | drift -0.04% | fluid 675.1600 | solid 659.4862
  Impulse FP iterations last/mean/max 20/20.17/30
Step  1900/2000   95.0% | t 95.000 | ETA 22s | step 0.19s | KE 1333.6600 | drift -0.11% | fluid 757.5759 | solid 576.0842
  Impulse FP iterations last/mean/max 20/20.16/30
Solver finished successfully - good job!
Results saved successfully.

================== Run summary ==================
  Bodies:            2
  Triangles / nodes: 256 / 516
  Timesteps:         2000  (dt = 0.05)
  Simulated time:    0 -> 100
  First-step setup:  0.385 s
  Mean time/step:    0.2189 s  (excl. first step)
  Total wall time:   7m 18s
  Impulse FP iters last/mean/max: 21 / 20.157 / 30
  Approx impulse solves/step:     20.157
  Impulse start cache hits/direct: 1999 / 1
  Impulse global drift P/H:       8.033247e-10 / 3.681546e-3
  Impulse per-body max drift P/H: 1.223870e-9 / 1.777412e-3
  CPU cores:         256 available, 8 Rayon worker thread(s)
  Started:           2026-06-24 02:38:57
  Finished:          2026-06-24 02:46:15
  Output file:       /work/e643/e643/shared/multi_ellip/studies/departing_sphericity_sweep/runs/spheroid_oblate/homogeneous/spheroid_oblate_homogeneous_eps1_rho1_E0p5_sep8_run10_impulse_noproj/multiple_body_complete.dat
================================================
