
================ Simulation setup ================
  Run label:         /work/e643/e643/shared/multi_ellip/studies/two_body_paper_sweeps/runs/ellipsoid_1_0p8_0p6/ellipsoid_1_0p8_0p6_rho0p3_E4_sep3_run05_impulse_noproj/
  Started:           2026-06-24 01:58:11
  Input file:        /work/e643/e643/shared/multi_ellip/studies/two_body_paper_sweeps/runs/ellipsoid_1_0p8_0p6/ellipsoid_1_0p8_0p6_rho0p3_E4_sep3_run05_impulse_noproj/input.txt
  Output file:       /work/e643/e643/shared/multi_ellip/studies/two_body_paper_sweeps/runs/ellipsoid_1_0p8_0p6/ellipsoid_1_0p8_0p6_rho0p3_E4_sep3_run05_impulse_noproj/multiple_body_complete.dat
  Bodies:            2
  Fluid density:     1
  Mesh:              ndiv 2 -> 256 triangles / 516 nodes
  Simulated time:    0 -> 100  (dt = 0.05, ~2000 steps)
  Output cadence:    every 1 step(s)
  Output rows:       ~2001
  Progress cadence:  every 100 step(s)
  CPU cores:         256 available, 8 Rayon worker thread(s)
  Strong coupling:   disabled
  Impulse scheme:    enabled
  Hamiltonian step:  disabled
  Hamiltonian midpt: disabled
  Variational step:  disabled
  Energy projection: disabled
  Projection particular metric: Euclidean
  Fluid KE gradient: disabled  (eps = 0.001, scale = 1, linear = 1, angular = 1)
  Fluid KE discrete gradient: disabled
  Impulse pair metric correction: disabled  (mode = pair discrete-gradient, cutoff = all pairs, inner/outer = 0/0, eps = 0.001, linear scale = 1, angular scale = 0)
  Impulse metric correction: disabled  (internal load constraint = disabled)
  Impulse variational defect probe: disabled
  Impulse quadratic pressure: disabled  (scale = 1)
  Added-mass stab:   disabled
  Exact BEM geometry: disabled
  Exact singular BEM: disabled
  Legacy singular SLP diagnostic: disabled
  Phi-dot blend:     0 (off)

  Solver guidance:
    - Strong coupling: use for stiff close-coupled runs; slower but more implicit.
    - Impulse scheme: use when impulse/momentum conservation or KE drift is the focus. Recommended.
    - Added-mass stab: use for higher mesh counts (ndiv > 3) to preserve stability - deprecated.
================================================
Solver starting - good luck!

Initial state:
  Body  1
    density:          0.300000
    shape axes ratio: (1.000000, 0.800000, 0.600000)
    initial KE ratio: 4.000000
    position:         (-1.500000, 0.000000, 0.000000)
    velocity:         (-1.955867, 0.943750, -0.030593)
    angular velocity: (1.452537, 4.455820, 4.185000)
    orientation:      (w=-0.659883, i=-0.303482, j=0.314262, k=0.611304)
  Body  2
    density:          0.300000
    shape axes ratio: (1.000000, 0.800000, 0.600000)
    initial KE ratio: 4.000000
    position:         (1.500000, 0.000000, 0.000000)
    velocity:         (-1.991556, 0.960971, -0.031151)
    angular velocity: (1.300883, 3.633441, -4.958248)
    orientation:      (w=-0.725767, i=-0.312182, j=0.342817, k=-0.508214)

Preparing first step: implicit scheme, no bootstrap passes required.
First step may take longer than later steps.

First step completed in 0.279 s.

Step   100/2000    5.0% | t 5.000 | ETA 6m 9s | step 0.20s | KE 56.3379 | drift +24.77% | fluid 19.3665 | solid 36.9714
  Impulse FP iterations last/mean/max 14/14.67/16
Step   200/2000   10.0% | t 10.000 | ETA 6m 6s | step 0.22s | KE 61.4449 | drift +36.08% | fluid 20.7854 | solid 40.6595
  Impulse FP iterations last/mean/max 15/14.66/16
Step   300/2000   15.0% | t 15.000 | ETA 5m 49s | step 0.22s | KE 62.7107 | drift +38.88% | fluid 21.8884 | solid 40.8224
  Impulse FP iterations last/mean/max 15/14.62/16
Step   400/2000   20.0% | t 20.000 | ETA 5m 30s | step 0.22s | KE 63.4450 | drift +40.51% | fluid 21.7297 | solid 41.7152
  Impulse FP iterations last/mean/max 14/14.56/16
Step   500/2000   25.0% | t 25.000 | ETA 5m 9s | step 0.21s | KE 63.4008 | drift +40.41% | fluid 20.9299 | solid 42.4709
  Impulse FP iterations last/mean/max 15/14.52/16
Step   600/2000   30.0% | t 30.000 | ETA 4m 49s | step 0.20s | KE 63.8175 | drift +41.33% | fluid 20.7782 | solid 43.0393
  Impulse FP iterations last/mean/max 14/14.50/16
Step   700/2000   35.0% | t 35.000 | ETA 4m 29s | step 0.20s | KE 63.6684 | drift +41.00% | fluid 22.1409 | solid 41.5275
  Impulse FP iterations last/mean/max 14/14.48/16
Step   800/2000   40.0% | t 40.000 | ETA 4m 8s | step 0.22s | KE 63.7829 | drift +41.26% | fluid 23.7955 | solid 39.9875
  Impulse FP iterations last/mean/max 15/14.49/16
Step   900/2000   45.0% | t 45.000 | ETA 3m 48s | step 0.21s | KE 63.7644 | drift +41.22% | fluid 23.8247 | solid 39.9397
  Impulse FP iterations last/mean/max 14/14.48/16
Step  1000/2000   50.0% | t 50.000 | ETA 3m 27s | step 0.23s | KE 63.6811 | drift +41.03% | fluid 22.1900 | solid 41.4911
  Impulse FP iterations last/mean/max 16/14.47/16
Step  1100/2000   55.0% | t 55.000 | ETA 3m 6s | step 0.20s | KE 63.9731 | drift +41.68% | fluid 21.6584 | solid 42.3147
  Impulse FP iterations last/mean/max 14/14.47/16
Step  1200/2000   60.0% | t 60.000 | ETA 2m 45s | step 0.21s | KE 63.6124 | drift +40.88% | fluid 21.7925 | solid 41.8199
  Impulse FP iterations last/mean/max 15/14.46/16
Step  1300/2000   65.0% | t 65.000 | ETA 2m 25s | step 0.19s | KE 63.7953 | drift +41.28% | fluid 22.8951 | solid 40.9002
  Impulse FP iterations last/mean/max 14/14.45/16
Step  1400/2000   70.0% | t 70.000 | ETA 2m 4s | step 0.20s | KE 63.8583 | drift +41.42% | fluid 23.4273 | solid 40.4311
  Impulse FP iterations last/mean/max 14/14.45/16
Step  1500/2000   75.0% | t 75.000 | ETA 1m 43s | step 0.20s | KE 63.6900 | drift +41.05% | fluid 21.2924 | solid 42.3976
  Impulse FP iterations last/mean/max 14/14.45/16
Step  1600/2000   80.0% | t 80.000 | ETA 1m 23s | step 0.23s | KE 63.8899 | drift +41.49% | fluid 20.1304 | solid 43.7595
  Impulse FP iterations last/mean/max 15/14.45/16
Step  1700/2000   85.0% | t 85.000 | ETA 1m 2s | step 0.19s | KE 63.6439 | drift +40.95% | fluid 21.0136 | solid 42.6303
  Impulse FP iterations last/mean/max 14/14.45/16
Step  1800/2000   90.0% | t 90.000 | ETA 41s | step 0.22s | KE 63.8994 | drift +41.51% | fluid 22.2257 | solid 41.6737
  Impulse FP iterations last/mean/max 15/14.45/16
Step  1900/2000   95.0% | t 95.000 | ETA 20s | step 0.18s | KE 63.8043 | drift +41.30% | fluid 21.1202 | solid 42.6841
  Impulse FP iterations last/mean/max 14/14.45/16
Solver finished successfully - good job!
Results saved successfully.

================== Run summary ==================
  Bodies:            2
  Triangles / nodes: 256 / 516
  Timesteps:         2000  (dt = 0.05)
  Simulated time:    0 -> 100
  First-step setup:  0.279 s
  Mean time/step:    0.2055 s  (excl. first step)
  Total wall time:   6m 51s
  Impulse FP iters last/mean/max: 14 / 14.445 / 16
  Approx impulse solves/step:     14.446
  Impulse start cache hits/direct: 1999 / 1
  Impulse global drift P/H:       2.622909e-8 / 1.294131e-2
  Impulse per-body max drift P/H: 3.291386e-8 / 2.254583e-2
  CPU cores:         256 available, 8 Rayon worker thread(s)
  Started:           2026-06-24 01:58:11
  Finished:          2026-06-24 02:05:02
  Output file:       /work/e643/e643/shared/multi_ellip/studies/two_body_paper_sweeps/runs/ellipsoid_1_0p8_0p6/ellipsoid_1_0p8_0p6_rho0p3_E4_sep3_run05_impulse_noproj/multiple_body_complete.dat
================================================
