
================ Simulation setup ================
  Run label:         /work/e643/e643/shared/multi_ellip/studies/departing_sphericity_sweep/runs/spheroid_oblate/homogeneous/spheroid_oblate_homogeneous_eps0p03_rho1_E0p5_sep8_run06_impulse_noproj/
  Started:           2026-06-24 02:30:07
  Input file:        /work/e643/e643/shared/multi_ellip/studies/departing_sphericity_sweep/runs/spheroid_oblate/homogeneous/spheroid_oblate_homogeneous_eps0p03_rho1_E0p5_sep8_run06_impulse_noproj/input.txt
  Output file:       /work/e643/e643/shared/multi_ellip/studies/departing_sphericity_sweep/runs/spheroid_oblate/homogeneous/spheroid_oblate_homogeneous_eps0p03_rho1_E0p5_sep8_run06_impulse_noproj/multiple_body_complete.dat
  Bodies:            2
  Fluid density:     1
  Mesh:              ndiv 2 -> 256 triangles / 516 nodes
  Simulated time:    0 -> 100  (dt = 0.05, ~2000 steps)
  Output cadence:    every 1 step(s)
  Output rows:       ~2001
  Progress cadence:  every 100 step(s)
  CPU cores:         256 available, 8 Rayon worker thread(s)
  Strong coupling:   disabled
  Impulse scheme:    enabled
  Hamiltonian step:  disabled
  Hamiltonian midpt: disabled
  Variational step:  disabled
  Energy projection: disabled
  Projection particular metric: Euclidean
  Fluid KE gradient: disabled  (eps = 0.001, scale = 1, linear = 1, angular = 1)
  Fluid KE discrete gradient: disabled
  Impulse pair metric correction: disabled  (mode = pair discrete-gradient, cutoff = all pairs, inner/outer = 0/0, eps = 0.001, linear scale = 1, angular scale = 0)
  Impulse metric correction: disabled  (internal load constraint = disabled)
  Impulse variational defect probe: disabled
  Impulse quadratic pressure: disabled  (scale = 1)
  Added-mass stab:   disabled
  Exact BEM geometry: disabled
  Exact singular BEM: disabled
  Legacy singular SLP diagnostic: disabled
  Phi-dot blend:     0 (off)

  Solver guidance:
    - Strong coupling: use for stiff close-coupled runs; slower but more implicit.
    - Impulse scheme: use when impulse/momentum conservation or KE drift is the focus. Recommended.
    - Added-mass stab: use for higher mesh counts (ndiv > 3) to preserve stability - deprecated.
================================================
Solver starting - good luck!

Initial state:
  Body  1
    density:          1.000000
    shape axes ratio: (1.000000, 1.000000, 0.915142)
    initial KE ratio: 0.500000
    position:         (-4.000000, 0.000000, 0.000000)
    velocity:         (-3.983298, 2.859500, -2.600236)
    angular velocity: (3.671515, 5.068716, 0.553632)
    orientation:      (w=-0.219557, i=0.271974, j=-0.868726, k=0.350912)
  Body  2
    density:          1.000000
    shape axes ratio: (1.000000, 1.000000, 0.915142)
    initial KE ratio: 0.500000
    position:         (4.000000, 0.000000, 0.000000)
    velocity:         (-4.076993, 2.926761, -2.661399)
    angular velocity: (3.677465, -2.094731, -4.644004)
    orientation:      (w=-0.297277, i=-0.183717, j=0.764683, k=0.541418)

Preparing first step: implicit scheme, no bootstrap passes required.
First step may take longer than later steps.

First step completed in 0.208 s.

Step   100/2000    5.0% | t 5.000 | ETA 3m 33s | step 0.11s | KE 274.8802 | drift +1.03% | fluid 74.3526 | solid 200.5277
  Impulse FP iterations last/mean/max 8/8.65/9
Step   200/2000   10.0% | t 10.000 | ETA 3m 27s | step 0.11s | KE 287.9711 | drift +5.84% | fluid 74.7520 | solid 213.2191
  Impulse FP iterations last/mean/max 9/8.76/9
Step   300/2000   15.0% | t 15.000 | ETA 3m 18s | step 0.12s | KE 292.3575 | drift +7.45% | fluid 73.6681 | solid 218.6894
  Impulse FP iterations last/mean/max 9/8.82/9
Step   400/2000   20.0% | t 20.000 | ETA 3m 8s | step 0.11s | KE 277.0825 | drift +1.84% | fluid 73.6626 | solid 203.4199
  Impulse FP iterations last/mean/max 9/8.85/9
Step   500/2000   25.0% | t 25.000 | ETA 2m 56s | step 0.10s | KE 261.3045 | drift -3.96% | fluid 73.8794 | solid 187.4250
  Impulse FP iterations last/mean/max 8/8.81/9
Step   600/2000   30.0% | t 30.000 | ETA 2m 39s | step 0.10s | KE 252.8336 | drift -7.08% | fluid 74.6913 | solid 178.1423
  Impulse FP iterations last/mean/max 8/8.71/9
Step   700/2000   35.0% | t 35.000 | ETA 2m 25s | step 0.11s | KE 249.9171 | drift -8.15% | fluid 74.5198 | solid 175.3973
  Impulse FP iterations last/mean/max 8/8.62/9
Step   800/2000   40.0% | t 40.000 | ETA 2m 12s | step 0.11s | KE 248.9948 | drift -8.49% | fluid 74.6482 | solid 174.3466
  Impulse FP iterations last/mean/max 8/8.51/9
Step   900/2000   45.0% | t 45.000 | ETA 2m 0s | step 0.10s | KE 248.2284 | drift -8.77% | fluid 75.8379 | solid 172.3905
  Impulse FP iterations last/mean/max 8/8.43/9
Step  1000/2000   50.0% | t 50.000 | ETA 1m 48s | step 0.10s | KE 247.5291 | drift -9.03% | fluid 76.0284 | solid 171.5006
  Impulse FP iterations last/mean/max 7/8.35/9
Step  1100/2000   55.0% | t 55.000 | ETA 1m 37s | step 0.12s | KE 246.8587 | drift -9.27% | fluid 75.7314 | solid 171.1273
  Impulse FP iterations last/mean/max 8/8.29/9
Step  1200/2000   60.0% | t 60.000 | ETA 1m 26s | step 0.11s | KE 246.3328 | drift -9.46% | fluid 74.8593 | solid 171.4735
  Impulse FP iterations last/mean/max 8/8.23/9
Step  1300/2000   65.0% | t 65.000 | ETA 1m 15s | step 0.10s | KE 246.0151 | drift -9.58% | fluid 73.5106 | solid 172.5045
  Impulse FP iterations last/mean/max 8/8.19/9
Step  1400/2000   70.0% | t 70.000 | ETA 1m 4s | step 0.09s | KE 245.8248 | drift -9.65% | fluid 72.9391 | solid 172.8858
  Impulse FP iterations last/mean/max 7/8.14/9
Step  1500/2000   75.0% | t 75.000 | ETA 53s | step 0.09s | KE 245.6571 | drift -9.71% | fluid 73.7898 | solid 171.8673
  Impulse FP iterations last/mean/max 7/8.11/9
Step  1600/2000   80.0% | t 80.000 | ETA 42s | step 0.11s | KE 245.5199 | drift -9.76% | fluid 74.8842 | solid 170.6358
  Impulse FP iterations last/mean/max 8/8.07/9
Step  1700/2000   85.0% | t 85.000 | ETA 31s | step 0.10s | KE 245.5566 | drift -9.75% | fluid 74.2623 | solid 171.2943
  Impulse FP iterations last/mean/max 7/8.04/9
Step  1800/2000   90.0% | t 90.000 | ETA 21s | step 0.10s | KE 245.6022 | drift -9.73% | fluid 73.2175 | solid 172.3847
  Impulse FP iterations last/mean/max 7/8.02/9
Step  1900/2000   95.0% | t 95.000 | ETA 10s | step 0.12s | KE 245.4913 | drift -9.77% | fluid 73.7801 | solid 171.7112
  Impulse FP iterations last/mean/max 8/8.00/9
Solver finished successfully - good job!
Results saved successfully.

================== Run summary ==================
  Bodies:            2
  Triangles / nodes: 256 / 516
  Timesteps:         2000  (dt = 0.05)
  Simulated time:    0 -> 100
  First-step setup:  0.208 s
  Mean time/step:    0.1057 s  (excl. first step)
  Total wall time:   3m 31s
  Impulse FP iters last/mean/max: 8 / 7.979 / 9
  Approx impulse solves/step:     7.980
  Impulse start cache hits/direct: 1999 / 1
  Impulse global drift P/H:       4.627906e-8 / 1.846346e-2
  Impulse per-body max drift P/H: 6.243971e-8 / 2.325863e-3
  CPU cores:         256 available, 8 Rayon worker thread(s)
  Started:           2026-06-24 02:30:07
  Finished:          2026-06-24 02:33:39
  Output file:       /work/e643/e643/shared/multi_ellip/studies/departing_sphericity_sweep/runs/spheroid_oblate/homogeneous/spheroid_oblate_homogeneous_eps0p03_rho1_E0p5_sep8_run06_impulse_noproj/multiple_body_complete.dat
================================================
