
================ Simulation setup ================
  Run label:         /work/e643/e643/shared/multi_ellip/studies/two_body_paper_sweeps/runs/spheroid_1_0p7_0p7/spheroid_1_0p7_0p7_rho0p1_E0p2_sep8_run05_impulse_noproj/
  Started:           2026-06-24 01:58:37
  Input file:        /work/e643/e643/shared/multi_ellip/studies/two_body_paper_sweeps/runs/spheroid_1_0p7_0p7/spheroid_1_0p7_0p7_rho0p1_E0p2_sep8_run05_impulse_noproj/input.txt
  Output file:       /work/e643/e643/shared/multi_ellip/studies/two_body_paper_sweeps/runs/spheroid_1_0p7_0p7/spheroid_1_0p7_0p7_rho0p1_E0p2_sep8_run05_impulse_noproj/multiple_body_complete.dat
  Bodies:            2
  Fluid density:     1
  Mesh:              ndiv 2 -> 256 triangles / 516 nodes
  Simulated time:    0 -> 100  (dt = 0.05, ~2000 steps)
  Output cadence:    every 1 step(s)
  Output rows:       ~2001
  Progress cadence:  every 100 step(s)
  CPU cores:         256 available, 8 Rayon worker thread(s)
  Strong coupling:   disabled
  Impulse scheme:    enabled
  Hamiltonian step:  disabled
  Hamiltonian midpt: disabled
  Variational step:  disabled
  Energy projection: disabled
  Projection particular metric: Euclidean
  Fluid KE gradient: disabled  (eps = 0.001, scale = 1, linear = 1, angular = 1)
  Fluid KE discrete gradient: disabled
  Impulse pair metric correction: disabled  (mode = pair discrete-gradient, cutoff = all pairs, inner/outer = 0/0, eps = 0.001, linear scale = 1, angular scale = 0)
  Impulse metric correction: disabled  (internal load constraint = disabled)
  Impulse variational defect probe: disabled
  Impulse quadratic pressure: disabled  (scale = 1)
  Added-mass stab:   disabled
  Exact BEM geometry: disabled
  Exact singular BEM: disabled
  Legacy singular SLP diagnostic: disabled
  Phi-dot blend:     0 (off)

  Solver guidance:
    - Strong coupling: use for stiff close-coupled runs; slower but more implicit.
    - Impulse scheme: use when impulse/momentum conservation or KE drift is the focus. Recommended.
    - Added-mass stab: use for higher mesh counts (ndiv > 3) to preserve stability - deprecated.
================================================
Solver starting - good luck!

Initial state:
  Body  1
    density:          0.100000
    shape axes ratio: (1.000000, 0.700000, 0.700000)
    initial KE ratio: 0.200000
    position:         (-4.000000, 0.000000, 0.000000)
    velocity:         (4.879250, 7.295003, -2.654605)
    angular velocity: (-3.589175, 2.377242, 4.576566)
    orientation:      (w=-0.010712, i=0.989186, j=0.144155, k=0.024816)
  Body  2
    density:          0.100000
    shape axes ratio: (1.000000, 0.700000, 0.700000)
    initial KE ratio: 0.200000
    position:         (4.000000, 0.000000, 0.000000)
    velocity:         (5.176900, 7.740021, -2.816544)
    angular velocity: (-0.023117, -5.933772, -2.065971)
    orientation:      (w=-0.318427, i=-0.226253, j=0.899377, k=0.196301)

Preparing first step: implicit scheme, no bootstrap passes required.
First step may take longer than later steps.

First step completed in 0.312 s.

Step   100/2000    5.0% | t 5.000 | ETA 7m 14s | step 0.22s | KE 217.5840 | drift +0.01% | fluid 169.6183 | solid 47.9657
  Impulse FP iterations last/mean/max 16/16.56/19
Step   200/2000   10.0% | t 10.000 | ETA 6m 44s | step 0.24s | KE 217.4231 | drift -0.06% | fluid 168.3328 | solid 49.0903
  Impulse FP iterations last/mean/max 17/16.50/19
Step   300/2000   15.0% | t 15.000 | ETA 6m 19s | step 0.22s | KE 217.5752 | drift +0.01% | fluid 169.2864 | solid 48.2888
  Impulse FP iterations last/mean/max 16/16.48/19
Step   400/2000   20.0% | t 20.000 | ETA 5m 57s | step 0.26s | KE 216.5666 | drift -0.46% | fluid 168.0785 | solid 48.4881
  Impulse FP iterations last/mean/max 17/16.48/19
Step   500/2000   25.0% | t 25.000 | ETA 5m 33s | step 0.23s | KE 215.6946 | drift -0.86% | fluid 164.7179 | solid 50.9767
  Impulse FP iterations last/mean/max 16/16.49/19
Step   600/2000   30.0% | t 30.000 | ETA 5m 10s | step 0.23s | KE 215.4153 | drift -0.99% | fluid 162.4370 | solid 52.9784
  Impulse FP iterations last/mean/max 17/16.46/19
Step   700/2000   35.0% | t 35.000 | ETA 4m 47s | step 0.24s | KE 217.3317 | drift -0.11% | fluid 165.7373 | solid 51.5944
  Impulse FP iterations last/mean/max 17/16.47/19
Step   800/2000   40.0% | t 40.000 | ETA 4m 25s | step 0.22s | KE 219.1791 | drift +0.74% | fluid 170.9091 | solid 48.2700
  Impulse FP iterations last/mean/max 17/16.47/19
Step   900/2000   45.0% | t 45.000 | ETA 4m 3s | step 0.20s | KE 219.7600 | drift +1.01% | fluid 172.6374 | solid 47.1226
  Impulse FP iterations last/mean/max 15/16.47/19
Step  1000/2000   50.0% | t 50.000 | ETA 3m 40s | step 0.19s | KE 219.4510 | drift +0.87% | fluid 170.1976 | solid 49.2534
  Impulse FP iterations last/mean/max 16/16.46/20
Step  1100/2000   55.0% | t 55.000 | ETA 3m 18s | step 0.23s | KE 218.2064 | drift +0.30% | fluid 166.9583 | solid 51.2481
  Impulse FP iterations last/mean/max 16/16.47/20
Step  1200/2000   60.0% | t 60.000 | ETA 2m 56s | step 0.24s | KE 217.9177 | drift +0.16% | fluid 167.2051 | solid 50.7126
  Impulse FP iterations last/mean/max 17/16.47/20
Step  1300/2000   65.0% | t 65.000 | ETA 2m 34s | step 0.22s | KE 216.8529 | drift -0.33% | fluid 167.4726 | solid 49.3803
  Impulse FP iterations last/mean/max 16/16.47/20
Step  1400/2000   70.0% | t 70.000 | ETA 2m 12s | step 0.19s | KE 215.8531 | drift -0.79% | fluid 165.9293 | solid 49.9238
  Impulse FP iterations last/mean/max 17/16.47/20
Step  1500/2000   75.0% | t 75.000 | ETA 1m 50s | step 0.22s | KE 215.7243 | drift -0.85% | fluid 163.9354 | solid 51.7889
  Impulse FP iterations last/mean/max 16/16.46/20
Step  1600/2000   80.0% | t 80.000 | ETA 1m 27s | step 0.24s | KE 216.2942 | drift -0.58% | fluid 165.1147 | solid 51.1795
  Impulse FP iterations last/mean/max 17/16.46/20
Step  1700/2000   85.0% | t 85.000 | ETA 1m 5s | step 0.21s | KE 218.0382 | drift +0.22% | fluid 170.3888 | solid 47.6493
  Impulse FP iterations last/mean/max 15/16.46/20
Step  1800/2000   90.0% | t 90.000 | ETA 43s | step 0.19s | KE 218.4748 | drift +0.42% | fluid 173.6931 | solid 44.7817
  Impulse FP iterations last/mean/max 15/16.46/20
Step  1900/2000   95.0% | t 95.000 | ETA 21s | step 0.17s | KE 218.5267 | drift +0.44% | fluid 173.0903 | solid 45.4365
  Impulse FP iterations last/mean/max 16/16.46/20
Solver finished successfully - good job!
Results saved successfully.

================== Run summary ==================
  Bodies:            2
  Triangles / nodes: 256 / 516
  Timesteps:         2000  (dt = 0.05)
  Simulated time:    0 -> 100
  First-step setup:  0.312 s
  Mean time/step:    0.2155 s  (excl. first step)
  Total wall time:   7m 11s
  Impulse FP iters last/mean/max: 16 / 16.464 / 20
  Approx impulse solves/step:     16.464
  Impulse start cache hits/direct: 1999 / 1
  Impulse global drift P/H:       3.149798e-8 / 5.019587e-3
  Impulse per-body max drift P/H: 6.684976e-8 / 1.418284e-3
  CPU cores:         256 available, 8 Rayon worker thread(s)
  Started:           2026-06-24 01:58:37
  Finished:          2026-06-24 02:05:49
  Output file:       /work/e643/e643/shared/multi_ellip/studies/two_body_paper_sweeps/runs/spheroid_1_0p7_0p7/spheroid_1_0p7_0p7_rho0p1_E0p2_sep8_run05_impulse_noproj/multiple_body_complete.dat
================================================
