
================ Simulation setup ================
  Run label:         /work/e643/e643/shared/multi_ellip/studies/two_body_paper_sweeps/runs/ellipsoid_1_0p8_0p6/ellipsoid_1_0p8_0p6_rho0p03_E30_sep8_run02_impulse_noproj/
  Started:           2026-06-22 20:15:44
  Input file:        /work/e643/e643/shared/multi_ellip/studies/two_body_paper_sweeps/runs/ellipsoid_1_0p8_0p6/ellipsoid_1_0p8_0p6_rho0p03_E30_sep8_run02_impulse_noproj/input.txt
  Output file:       /work/e643/e643/shared/multi_ellip/studies/two_body_paper_sweeps/runs/ellipsoid_1_0p8_0p6/ellipsoid_1_0p8_0p6_rho0p03_E30_sep8_run02_impulse_noproj/multiple_body_complete.dat
  Bodies:            2
  Fluid density:     1
  Mesh:              ndiv 2 -> 256 triangles / 516 nodes
  Simulated time:    0 -> 100  (dt = 0.05, ~2000 steps)
  Output cadence:    every 1 step(s)
  Output rows:       ~2001
  Progress cadence:  every 100 step(s)
  CPU cores:         256 available, 8 Rayon worker thread(s)
  Strong coupling:   disabled
  Impulse scheme:    enabled
  Hamiltonian step:  disabled
  Hamiltonian midpt: disabled
  Variational step:  disabled
  Energy projection: disabled
  Projection particular metric: Euclidean
  Fluid KE gradient: disabled  (eps = 0.001, scale = 1, linear = 1, angular = 1)
  Fluid KE discrete gradient: disabled
  Impulse pair metric correction: disabled  (mode = pair discrete-gradient, cutoff = all pairs, inner/outer = 0/0, eps = 0.001, linear scale = 1, angular scale = 0)
  Impulse metric correction: disabled  (internal load constraint = disabled)
  Impulse variational defect probe: disabled
  Impulse quadratic pressure: disabled  (scale = 1)
  Added-mass stab:   disabled
  Exact BEM geometry: disabled
  Exact singular BEM: disabled
  Legacy singular SLP diagnostic: disabled
  Phi-dot blend:     0 (off)

  Solver guidance:
    - Strong coupling: use for stiff close-coupled runs; slower but more implicit.
    - Impulse scheme: use when impulse/momentum conservation or KE drift is the focus. Recommended.
    - Added-mass stab: use for higher mesh counts (ndiv > 3) to preserve stability - deprecated.
================================================
Solver starting - good luck!

Initial state:
  Body  1
    density:          0.030000
    shape axes ratio: (1.000000, 0.800000, 0.600000)
    initial KE ratio: 30.000000
    position:         (-4.000000, 0.000000, 0.000000)
    velocity:         (0.519200, -0.555011, -0.273428)
    angular velocity: (1.870286, -2.997569, 5.195674)
    orientation:      (w=0.577350, i=0.577350, j=0.577350, k=0.000000)
  Body  2
    density:          0.030000
    shape axes ratio: (1.000000, 0.800000, 0.600000)
    initial KE ratio: 30.000000
    position:         (4.000000, 0.000000, 0.000000)
    velocity:         (0.492973, -0.526976, -0.259617)
    angular velocity: (-3.552253, -3.039214, -4.197987)
    orientation:      (w=0.577350, i=-0.577350, j=0.000000, k=0.577350)

Preparing first step: implicit scheme, no bootstrap passes required.
First step may take longer than later steps.

First step completed in 0.588 s.

Step   100/2000    5.0% | t 5.000 | ETA 12m 38s | step 0.40s | KE 14.3131 | drift -0.40% | fluid 12.0813 | solid 2.2318
  Impulse FP iterations last/mean/max 30/29.87/30
Step   200/2000   10.0% | t 10.000 | ETA 12m 0s | step 0.41s | KE 13.9565 | drift -2.88% | fluid 11.9103 | solid 2.0463
  Impulse FP iterations last/mean/max 30/29.85/30
Step   300/2000   15.0% | t 15.000 | ETA 11m 6s | step 0.35s | KE 13.5600 | drift -5.64% | fluid 11.6484 | solid 1.9116
  Impulse FP iterations last/mean/max 30/29.82/30
Step   400/2000   20.0% | t 20.000 | ETA 10m 6s | step 0.35s | KE 13.6446 | drift -5.05% | fluid 11.5787 | solid 2.0659
  Impulse FP iterations last/mean/max 30/29.84/30
Step   500/2000   25.0% | t 25.000 | ETA 9m 19s | step 0.36s | KE 13.8801 | drift -3.41% | fluid 11.9109 | solid 1.9692
  Impulse FP iterations last/mean/max 30/29.83/30
Step   600/2000   30.0% | t 30.000 | ETA 8m 46s | step 0.40s | KE 13.7879 | drift -4.05% | fluid 11.8116 | solid 1.9763
  Impulse FP iterations last/mean/max 30/29.81/30
Step   700/2000   35.0% | t 35.000 | ETA 8m 12s | step 0.37s | KE 13.5395 | drift -5.78% | fluid 11.5659 | solid 1.9736
  Impulse FP iterations last/mean/max 30/29.82/30
Step   800/2000   40.0% | t 40.000 | ETA 7m 35s | step 0.39s | KE 13.5410 | drift -5.77% | fluid 11.0608 | solid 2.4802
  Impulse FP iterations last/mean/max 30/29.82/30
Step   900/2000   45.0% | t 45.000 | ETA 6m 58s | step 0.35s | KE 14.1273 | drift -1.69% | fluid 11.5973 | solid 2.5300
  Impulse FP iterations last/mean/max 27/29.82/30
Step  1000/2000   50.0% | t 50.000 | ETA 6m 21s | step 0.41s | KE 14.8576 | drift +3.39% | fluid 11.9371 | solid 2.9205
  Impulse FP iterations last/mean/max 30/29.83/30
Step  1100/2000   55.0% | t 55.000 | ETA 5m 44s | step 0.38s | KE 15.5148 | drift +7.97% | fluid 12.6267 | solid 2.8881
  Impulse FP iterations last/mean/max 30/29.83/30
Step  1200/2000   60.0% | t 60.000 | ETA 5m 6s | step 0.38s | KE 16.0912 | drift +11.98% | fluid 13.2760 | solid 2.8152
  Impulse FP iterations last/mean/max 30/29.84/30
Step  1300/2000   65.0% | t 65.000 | ETA 4m 29s | step 0.39s | KE 16.6590 | drift +15.93% | fluid 13.5268 | solid 3.1323
  Impulse FP iterations last/mean/max 30/29.85/30
Step  1400/2000   70.0% | t 70.000 | ETA 3m 51s | step 0.39s | KE 17.1547 | drift +19.38% | fluid 13.8657 | solid 3.2890
  Impulse FP iterations last/mean/max 30/29.86/30
Step  1500/2000   75.0% | t 75.000 | ETA 3m 13s | step 0.44s | KE 17.6775 | drift +23.02% | fluid 14.4359 | solid 3.2416
  Impulse FP iterations last/mean/max 30/29.86/30
Step  1600/2000   80.0% | t 80.000 | ETA 2m 34s | step 0.40s | KE 18.0750 | drift +25.78% | fluid 14.4716 | solid 3.6034
  Impulse FP iterations last/mean/max 30/29.87/30
Step  1700/2000   85.0% | t 85.000 | ETA 1m 56s | step 0.39s | KE 18.4109 | drift +28.12% | fluid 14.6228 | solid 3.7881
  Impulse FP iterations last/mean/max 30/29.87/30
Step  1800/2000   90.0% | t 90.000 | ETA 1m 17s | step 0.34s | KE 18.6725 | drift +29.94% | fluid 15.3505 | solid 3.3219
  Impulse FP iterations last/mean/max 29/29.88/30
Step  1900/2000   95.0% | t 95.000 | ETA 38s | step 0.28s | KE 18.8019 | drift +30.84% | fluid 15.1903 | solid 3.6115
  Impulse FP iterations last/mean/max 30/29.88/30
Solver finished successfully - good job!
Results saved successfully.

================== Run summary ==================
  Bodies:            2
  Triangles / nodes: 256 / 516
  Timesteps:         2000  (dt = 0.05)
  Simulated time:    0 -> 100
  First-step setup:  0.588 s
  Mean time/step:    0.3789 s  (excl. first step)
  Total wall time:   12m 37s
  Impulse FP iters last/mean/max: 30 / 29.884 / 30
  Approx impulse solves/step:     29.884
  Impulse start cache hits/direct: 1999 / 1
  Impulse global drift P/H:       3.641794e-6 / 1.333726e-2
  Impulse per-body max drift P/H: 8.530907e-6 / 1.687460e-3
  CPU cores:         256 available, 8 Rayon worker thread(s)
  Started:           2026-06-22 20:15:44
  Finished:          2026-06-22 20:28:25
  Output file:       /work/e643/e643/shared/multi_ellip/studies/two_body_paper_sweeps/runs/ellipsoid_1_0p8_0p6/ellipsoid_1_0p8_0p6_rho0p03_E30_sep8_run02_impulse_noproj/multiple_body_complete.dat
================================================
