
================ Simulation setup ================
  Run label:         /work/e643/e643/shared/multi_ellip/studies/two_body_paper_sweeps/runs/spheroid_1_0p7_0p7/spheroid_1_0p7_0p7_rho10_E0p2_sep3_run02_impulse_noproj/
  Started:           2026-06-22 19:23:17
  Input file:        /work/e643/e643/shared/multi_ellip/studies/two_body_paper_sweeps/runs/spheroid_1_0p7_0p7/spheroid_1_0p7_0p7_rho10_E0p2_sep3_run02_impulse_noproj/input.txt
  Output file:       /work/e643/e643/shared/multi_ellip/studies/two_body_paper_sweeps/runs/spheroid_1_0p7_0p7/spheroid_1_0p7_0p7_rho10_E0p2_sep3_run02_impulse_noproj/multiple_body_complete.dat
  Bodies:            2
  Fluid density:     1
  Mesh:              ndiv 2 -> 256 triangles / 516 nodes
  Simulated time:    0 -> 100  (dt = 0.05, ~2000 steps)
  Output cadence:    every 1 step(s)
  Output rows:       ~2001
  Progress cadence:  every 100 step(s)
  CPU cores:         256 available, 8 Rayon worker thread(s)
  Strong coupling:   disabled
  Impulse scheme:    enabled
  Hamiltonian step:  disabled
  Hamiltonian midpt: disabled
  Variational step:  disabled
  Energy projection: disabled
  Projection particular metric: Euclidean
  Fluid KE gradient: disabled  (eps = 0.001, scale = 1, linear = 1, angular = 1)
  Fluid KE discrete gradient: disabled
  Impulse pair metric correction: disabled  (mode = pair discrete-gradient, cutoff = all pairs, inner/outer = 0/0, eps = 0.001, linear scale = 1, angular scale = 0)
  Impulse metric correction: disabled  (internal load constraint = disabled)
  Impulse variational defect probe: disabled
  Impulse quadratic pressure: disabled  (scale = 1)
  Added-mass stab:   disabled
  Exact BEM geometry: disabled
  Exact singular BEM: disabled
  Legacy singular SLP diagnostic: disabled
  Phi-dot blend:     0 (off)

  Solver guidance:
    - Strong coupling: use for stiff close-coupled runs; slower but more implicit.
    - Impulse scheme: use when impulse/momentum conservation or KE drift is the focus. Recommended.
    - Added-mass stab: use for higher mesh counts (ndiv > 3) to preserve stability - deprecated.
================================================
Solver starting - good luck!

Initial state:
  Body  1
    density:          10.000000
    shape axes ratio: (1.000000, 0.700000, 0.700000)
    initial KE ratio: 0.200000
    position:         (-1.500000, 0.000000, 0.000000)
    velocity:         (-4.819062, 6.777881, -4.076809)
    angular velocity: (-3.285632, 2.861118, -4.527366)
    orientation:      (w=0.577350, i=0.577350, j=0.577350, k=0.000000)
  Body  2
    density:          10.000000
    shape axes ratio: (1.000000, 0.700000, 0.700000)
    initial KE ratio: 0.200000
    position:         (1.500000, 0.000000, 0.000000)
    velocity:         (-5.054008, 7.108327, -4.275567)
    angular velocity: (0.594278, -6.053410, -1.575271)
    orientation:      (w=0.577350, i=-0.577350, j=0.000000, k=0.577350)

Preparing first step: implicit scheme, no bootstrap passes required.
First step may take longer than later steps.

First step completed in 7.492 s.

Step   100/2000    5.0% | t 5.000 | ETA 3m 13s | step 0.11s | KE 4498.4646 | drift -4.25% | fluid 262.8244 | solid 4235.6402
  Impulse FP iterations last/mean/max 8/7.11/8
Step   200/2000   10.0% | t 10.000 | ETA 3m 1s | step 0.10s | KE 4819.3219 | drift +2.58% | fluid 213.4450 | solid 4605.8769
  Impulse FP iterations last/mean/max 7/7.06/8
Step   300/2000   15.0% | t 15.000 | ETA 2m 50s | step 0.10s | KE 4859.0150 | drift +3.43% | fluid 230.9522 | solid 4628.0628
  Impulse FP iterations last/mean/max 7/7.02/8
Step   400/2000   20.0% | t 20.000 | ETA 2m 39s | step 0.10s | KE 4858.8331 | drift +3.42% | fluid 190.8202 | solid 4668.0129
  Impulse FP iterations last/mean/max 7/7.00/8
Step   500/2000   25.0% | t 25.000 | ETA 2m 29s | step 0.10s | KE 4859.1715 | drift +3.43% | fluid 237.0118 | solid 4622.1597
  Impulse FP iterations last/mean/max 7/7.00/8
Step   600/2000   30.0% | t 30.000 | ETA 2m 19s | step 0.10s | KE 4853.0863 | drift +3.30% | fluid 195.9528 | solid 4657.1335
  Impulse FP iterations last/mean/max 7/7.00/8
Step   700/2000   35.0% | t 35.000 | ETA 2m 8s | step 0.08s | KE 4849.8067 | drift +3.23% | fluid 225.5036 | solid 4624.3031
  Impulse FP iterations last/mean/max 7/7.00/8
Step   800/2000   40.0% | t 40.000 | ETA 1m 56s | step 0.09s | KE 4849.5634 | drift +3.23% | fluid 216.4503 | solid 4633.1131
  Impulse FP iterations last/mean/max 7/7.00/8
Step   900/2000   45.0% | t 45.000 | ETA 1m 45s | step 0.09s | KE 4847.2570 | drift +3.18% | fluid 245.3440 | solid 4601.9131
  Impulse FP iterations last/mean/max 7/6.99/8
Step  1000/2000   50.0% | t 50.000 | ETA 1m 35s | step 0.09s | KE 4848.2853 | drift +3.20% | fluid 193.2529 | solid 4655.0324
  Impulse FP iterations last/mean/max 7/6.99/8
Step  1100/2000   55.0% | t 55.000 | ETA 1m 26s | step 0.10s | KE 4847.6215 | drift +3.19% | fluid 245.4862 | solid 4602.1353
  Impulse FP iterations last/mean/max 7/6.99/8
Step  1200/2000   60.0% | t 60.000 | ETA 1m 16s | step 0.10s | KE 4847.5766 | drift +3.18% | fluid 245.4241 | solid 4602.1526
  Impulse FP iterations last/mean/max 7/6.99/8
Step  1300/2000   65.0% | t 65.000 | ETA 1m 7s | step 0.10s | KE 4848.7639 | drift +3.21% | fluid 192.5859 | solid 4656.1780
  Impulse FP iterations last/mean/max 7/6.99/8
Step  1400/2000   70.0% | t 70.000 | ETA 57s | step 0.10s | KE 4847.3608 | drift +3.18% | fluid 247.7716 | solid 4599.5892
  Impulse FP iterations last/mean/max 7/6.99/8
Step  1500/2000   75.0% | t 75.000 | ETA 48s | step 0.10s | KE 4848.8927 | drift +3.21% | fluid 219.3007 | solid 4629.5920
  Impulse FP iterations last/mean/max 7/6.98/8
Step  1600/2000   80.0% | t 80.000 | ETA 38s | step 0.12s | KE 4848.2856 | drift +3.20% | fluid 222.1365 | solid 4626.1491
  Impulse FP iterations last/mean/max 8/6.98/8
Step  1700/2000   85.0% | t 85.000 | ETA 29s | step 0.09s | KE 4847.9697 | drift +3.19% | fluid 197.3965 | solid 4650.5732
  Impulse FP iterations last/mean/max 7/6.99/8
Step  1800/2000   90.0% | t 90.000 | ETA 19s | step 0.10s | KE 4849.1924 | drift +3.22% | fluid 238.6110 | solid 4610.5814
  Impulse FP iterations last/mean/max 7/6.99/8
Step  1900/2000   95.0% | t 95.000 | ETA 9s | step 0.09s | KE 4847.5088 | drift +3.18% | fluid 207.0720 | solid 4640.4368
  Impulse FP iterations last/mean/max 7/6.99/8
Solver finished successfully - good job!
Results saved successfully.

================== Run summary ==================
  Bodies:            2
  Triangles / nodes: 256 / 516
  Timesteps:         2000  (dt = 0.05)
  Simulated time:    0 -> 100
  First-step setup:  7.492 s
  Mean time/step:    0.0954 s  (excl. first step)
  Total wall time:   3m 18s
  Impulse FP iters last/mean/max: 7 / 6.989 / 8
  Approx impulse solves/step:     6.990
  Impulse start cache hits/direct: 1999 / 1
  Impulse global drift P/H:       8.540674e-10 / 3.992897e-2
  Impulse per-body max drift P/H: 1.945357e-9 / 7.380647e-3
  CPU cores:         256 available, 8 Rayon worker thread(s)
  Started:           2026-06-22 19:23:17
  Finished:          2026-06-22 19:26:36
  Output file:       /work/e643/e643/shared/multi_ellip/studies/two_body_paper_sweeps/runs/spheroid_1_0p7_0p7/spheroid_1_0p7_0p7_rho10_E0p2_sep3_run02_impulse_noproj/multiple_body_complete.dat
================================================
