
================ Simulation setup ================
  Run label:         /work/e643/e643/shared/multi_ellip/studies/departing_sphericity_sweep/runs/spheroid_prolate/homogeneous/spheroid_prolate_homogeneous_eps0_rho1_E0p5_sep8_run07_impulse_noproj/
  Started:           2026-06-24 02:23:11
  Input file:        /work/e643/e643/shared/multi_ellip/studies/departing_sphericity_sweep/runs/spheroid_prolate/homogeneous/spheroid_prolate_homogeneous_eps0_rho1_E0p5_sep8_run07_impulse_noproj/input.txt
  Output file:       /work/e643/e643/shared/multi_ellip/studies/departing_sphericity_sweep/runs/spheroid_prolate/homogeneous/spheroid_prolate_homogeneous_eps0_rho1_E0p5_sep8_run07_impulse_noproj/multiple_body_complete.dat
  Bodies:            2
  Fluid density:     1
  Mesh:              ndiv 2 -> 256 triangles / 516 nodes
  Simulated time:    0 -> 100  (dt = 0.05, ~2000 steps)
  Output cadence:    every 1 step(s)
  Output rows:       ~2001
  Progress cadence:  every 100 step(s)
  CPU cores:         256 available, 8 Rayon worker thread(s)
  Strong coupling:   disabled
  Impulse scheme:    enabled
  Hamiltonian step:  disabled
  Hamiltonian midpt: disabled
  Variational step:  disabled
  Energy projection: disabled
  Projection particular metric: Euclidean
  Fluid KE gradient: disabled  (eps = 0.001, scale = 1, linear = 1, angular = 1)
  Fluid KE discrete gradient: disabled
  Impulse pair metric correction: disabled  (mode = pair discrete-gradient, cutoff = all pairs, inner/outer = 0/0, eps = 0.001, linear scale = 1, angular scale = 0)
  Impulse metric correction: disabled  (internal load constraint = disabled)
  Impulse variational defect probe: disabled
  Impulse quadratic pressure: disabled  (scale = 1)
  Added-mass stab:   disabled
  Exact BEM geometry: disabled
  Exact singular BEM: disabled
  Legacy singular SLP diagnostic: disabled
  Phi-dot blend:     0 (off)

  Solver guidance:
    - Strong coupling: use for stiff close-coupled runs; slower but more implicit.
    - Impulse scheme: use when impulse/momentum conservation or KE drift is the focus. Recommended.
    - Added-mass stab: use for higher mesh counts (ndiv > 3) to preserve stability - deprecated.
================================================
Solver starting - good luck!

Initial state:
  Body  1
    density:          1.000000
    shape axes ratio: (1.000000, 1.000000, 1.000000)
    initial KE ratio: 0.500000
    position:         (-4.000000, 0.000000, 0.000000)
    velocity:         (4.519332, 3.175062, -1.037959)
    angular velocity: (-3.699664, -0.211997, -5.074048)
    orientation:      (w=0.331334, i=-0.700263, j=-0.599919, k=-0.199867)
  Body  2
    density:          1.000000
    shape axes ratio: (1.000000, 1.000000, 1.000000)
    initial KE ratio: 0.500000
    position:         (4.000000, 0.000000, 0.000000)
    velocity:         (4.519332, 3.175062, -1.037959)
    angular velocity: (-4.835885, 3.248449, -2.353765)
    orientation:      (w=-0.782090, i=0.497144, j=-0.356221, k=-0.119540)

Preparing first step: implicit scheme, no bootstrap passes required.
First step may take longer than later steps.

First step completed in 8.348 s.

Step   100/2000    5.0% | t 5.000 | ETA 2m 39s | step 0.09s | KE 281.7488 | drift +4.11% | fluid 72.1860 | solid 209.5628
  Impulse FP iterations last/mean/max 6/6.00/6
Step   200/2000   10.0% | t 10.000 | ETA 2m 30s | step 0.09s | KE 295.8176 | drift +9.31% | fluid 72.1860 | solid 223.6316
  Impulse FP iterations last/mean/max 6/6.00/6
Step   300/2000   15.0% | t 15.000 | ETA 2m 21s | step 0.09s | KE 312.8325 | drift +15.60% | fluid 72.1860 | solid 240.6465
  Impulse FP iterations last/mean/max 6/6.00/6
Step   400/2000   20.0% | t 20.000 | ETA 2m 13s | step 0.08s | KE 332.7933 | drift +22.97% | fluid 72.1860 | solid 260.6073
  Impulse FP iterations last/mean/max 6/5.99/6
Step   500/2000   25.0% | t 25.000 | ETA 2m 4s | step 0.09s | KE 355.7004 | drift +31.44% | fluid 72.1860 | solid 283.5144
  Impulse FP iterations last/mean/max 6/5.97/6
Step   600/2000   30.0% | t 30.000 | ETA 1m 56s | step 0.07s | KE 381.5533 | drift +40.99% | fluid 72.1860 | solid 309.3673
  Impulse FP iterations last/mean/max 6/5.96/6
Step   700/2000   35.0% | t 35.000 | ETA 1m 47s | step 0.09s | KE 410.3520 | drift +51.63% | fluid 72.1861 | solid 338.1659
  Impulse FP iterations last/mean/max 6/5.93/6
Step   800/2000   40.0% | t 40.000 | ETA 1m 38s | step 0.08s | KE 442.0964 | drift +63.36% | fluid 72.1861 | solid 369.9104
  Impulse FP iterations last/mean/max 6/5.91/6
Step   900/2000   45.0% | t 45.000 | ETA 1m 30s | step 0.08s | KE 476.7863 | drift +76.18% | fluid 72.1861 | solid 404.6002
  Impulse FP iterations last/mean/max 6/5.88/6
Step  1000/2000   50.0% | t 50.000 | ETA 1m 21s | step 0.08s | KE 514.4217 | drift +90.09% | fluid 72.1862 | solid 442.2355
  Impulse FP iterations last/mean/max 6/5.86/6
Step  1100/2000   55.0% | t 55.000 | ETA 1m 13s | step 0.09s | KE 555.0024 | drift +105.08% | fluid 72.1862 | solid 482.8162
  Impulse FP iterations last/mean/max 6/5.84/6
Step  1200/2000   60.0% | t 60.000 | ETA 1m 5s | step 0.07s | KE 598.5282 | drift +121.16% | fluid 72.1862 | solid 526.3420
  Impulse FP iterations last/mean/max 5/5.81/6
Step  1300/2000   65.0% | t 65.000 | ETA 56s | step 0.07s | KE 644.9991 | drift +138.34% | fluid 72.1862 | solid 572.8128
  Impulse FP iterations last/mean/max 5/5.79/6
Step  1400/2000   70.0% | t 70.000 | ETA 48s | step 0.09s | KE 694.4147 | drift +156.60% | fluid 72.1863 | solid 622.2284
  Impulse FP iterations last/mean/max 6/5.78/6
Step  1500/2000   75.0% | t 75.000 | ETA 40s | step 0.07s | KE 746.7749 | drift +175.94% | fluid 72.1863 | solid 674.5886
  Impulse FP iterations last/mean/max 5/5.76/6
Step  1600/2000   80.0% | t 80.000 | ETA 32s | step 0.08s | KE 802.0797 | drift +196.38% | fluid 72.1863 | solid 729.8934
  Impulse FP iterations last/mean/max 5/5.75/6
Step  1700/2000   85.0% | t 85.000 | ETA 24s | step 0.08s | KE 860.3285 | drift +217.90% | fluid 72.1864 | solid 788.1421
  Impulse FP iterations last/mean/max 6/5.74/6
Step  1800/2000   90.0% | t 90.000 | ETA 16s | step 0.06s | KE 921.5213 | drift +240.51% | fluid 72.1864 | solid 849.3349
  Impulse FP iterations last/mean/max 5/5.73/6
Step  1900/2000   95.0% | t 95.000 | ETA 7s | step 0.07s | KE 985.6579 | drift +264.21% | fluid 72.1865 | solid 913.4714
  Impulse FP iterations last/mean/max 6/5.72/6
Solver finished successfully - good job!
Results saved successfully.

================== Run summary ==================
  Bodies:            2
  Triangles / nodes: 256 / 516
  Timesteps:         2000  (dt = 0.05)
  Simulated time:    0 -> 100
  First-step setup:  8.348 s
  Mean time/step:    0.0793 s  (excl. first step)
  Total wall time:   2m 46s
  Impulse FP iters last/mean/max: 5 / 5.710 / 6
  Approx impulse solves/step:     5.710
  Impulse start cache hits/direct: 1999 / 1
  Impulse global drift P/H:       8.382037e-10 / 6.752083e-2
  Impulse per-body max drift P/H: 2.853855e-9 / 8.892545e-3
  CPU cores:         256 available, 8 Rayon worker thread(s)
  Started:           2026-06-24 02:23:11
  Finished:          2026-06-24 02:25:58
  Output file:       /work/e643/e643/shared/multi_ellip/studies/departing_sphericity_sweep/runs/spheroid_prolate/homogeneous/spheroid_prolate_homogeneous_eps0_rho1_E0p5_sep8_run07_impulse_noproj/multiple_body_complete.dat
================================================
