
================ Simulation setup ================
  Run label:         /work/e643/e643/shared/multi_ellip/studies/two_body_paper_sweeps/runs/ellipsoid_1_0p8_0p6/ellipsoid_1_0p8_0p6_rho0p1_E4_sep8_run03_impulse_noproj/
  Started:           2026-06-24 02:14:38
  Input file:        /work/e643/e643/shared/multi_ellip/studies/two_body_paper_sweeps/runs/ellipsoid_1_0p8_0p6/ellipsoid_1_0p8_0p6_rho0p1_E4_sep8_run03_impulse_noproj/input.txt
  Output file:       /work/e643/e643/shared/multi_ellip/studies/two_body_paper_sweeps/runs/ellipsoid_1_0p8_0p6/ellipsoid_1_0p8_0p6_rho0p1_E4_sep8_run03_impulse_noproj/multiple_body_complete.dat
  Bodies:            2
  Fluid density:     1
  Mesh:              ndiv 2 -> 256 triangles / 516 nodes
  Simulated time:    0 -> 100  (dt = 0.05, ~2000 steps)
  Output cadence:    every 1 step(s)
  Output rows:       ~2001
  Progress cadence:  every 100 step(s)
  CPU cores:         256 available, 8 Rayon worker thread(s)
  Strong coupling:   disabled
  Impulse scheme:    enabled
  Hamiltonian step:  disabled
  Hamiltonian midpt: disabled
  Variational step:  disabled
  Energy projection: disabled
  Projection particular metric: Euclidean
  Fluid KE gradient: disabled  (eps = 0.001, scale = 1, linear = 1, angular = 1)
  Fluid KE discrete gradient: disabled
  Impulse pair metric correction: disabled  (mode = pair discrete-gradient, cutoff = all pairs, inner/outer = 0/0, eps = 0.001, linear scale = 1, angular scale = 0)
  Impulse metric correction: disabled  (internal load constraint = disabled)
  Impulse variational defect probe: disabled
  Impulse quadratic pressure: disabled  (scale = 1)
  Added-mass stab:   disabled
  Exact BEM geometry: disabled
  Exact singular BEM: disabled
  Legacy singular SLP diagnostic: disabled
  Phi-dot blend:     0 (off)

  Solver guidance:
    - Strong coupling: use for stiff close-coupled runs; slower but more implicit.
    - Impulse scheme: use when impulse/momentum conservation or KE drift is the focus. Recommended.
    - Added-mass stab: use for higher mesh counts (ndiv > 3) to preserve stability - deprecated.
================================================
Solver starting - good luck!

Initial state:
  Body  1
    density:          0.100000
    shape axes ratio: (1.000000, 0.800000, 0.600000)
    initial KE ratio: 4.000000
    position:         (-4.000000, 0.000000, 0.000000)
    velocity:         (1.510034, 1.262158, -0.451675)
    angular velocity: (-3.889260, -4.256392, 2.497039)
    orientation:      (w=-0.194614, i=0.962287, j=0.185064, k=-0.043369)
  Body  2
    density:          0.100000
    shape axes ratio: (1.000000, 0.800000, 0.600000)
    initial KE ratio: 4.000000
    position:         (4.000000, 0.000000, 0.000000)
    velocity:         (1.556963, 1.301384, -0.465712)
    angular velocity: (1.230628, 6.161166, -0.063312)
    orientation:      (w=-0.606910, i=-0.568093, j=-0.323230, k=-0.452165)

Preparing first step: implicit scheme, no bootstrap passes required.
First step may take longer than later steps.

First step completed in 0.355 s.

Step   100/2000    5.0% | t 5.000 | ETA 8m 21s | step 0.28s | KE 19.0644 | drift +0.04% | fluid 12.5112 | solid 6.5532
  Impulse FP iterations last/mean/max 19/18.80/21
Step   200/2000   10.0% | t 10.000 | ETA 7m 54s | step 0.29s | KE 18.9531 | drift -0.54% | fluid 11.7690 | solid 7.1842
  Impulse FP iterations last/mean/max 20/18.55/21
Step   300/2000   15.0% | t 15.000 | ETA 7m 32s | step 0.26s | KE 18.9266 | drift -0.68% | fluid 11.7597 | solid 7.1669
  Impulse FP iterations last/mean/max 18/18.61/21
Step   400/2000   20.0% | t 20.000 | ETA 7m 5s | step 0.27s | KE 18.9521 | drift -0.54% | fluid 12.3882 | solid 6.5640
  Impulse FP iterations last/mean/max 18/18.59/21
Step   500/2000   25.0% | t 25.000 | ETA 6m 39s | step 0.29s | KE 18.9096 | drift -0.77% | fluid 12.5011 | solid 6.4086
  Impulse FP iterations last/mean/max 21/18.61/21
Step   600/2000   30.0% | t 30.000 | ETA 6m 6s | step 0.22s | KE 19.0106 | drift -0.24% | fluid 13.1191 | solid 5.8914
  Impulse FP iterations last/mean/max 19/18.62/21
Step   700/2000   35.0% | t 35.000 | ETA 5m 36s | step 0.26s | KE 18.9038 | drift -0.80% | fluid 10.8666 | solid 8.0372
  Impulse FP iterations last/mean/max 19/18.65/21
Step   800/2000   40.0% | t 40.000 | ETA 5m 9s | step 0.25s | KE 18.9217 | drift -0.70% | fluid 11.5543 | solid 7.3674
  Impulse FP iterations last/mean/max 19/18.67/21
Step   900/2000   45.0% | t 45.000 | ETA 4m 43s | step 0.23s | KE 18.9067 | drift -0.78% | fluid 10.2654 | solid 8.6413
  Impulse FP iterations last/mean/max 17/18.64/21
Step  1000/2000   50.0% | t 50.000 | ETA 4m 18s | step 0.29s | KE 18.9438 | drift -0.59% | fluid 12.1764 | solid 6.7674
  Impulse FP iterations last/mean/max 20/18.64/21
Step  1100/2000   55.0% | t 55.000 | ETA 3m 53s | step 0.30s | KE 18.8952 | drift -0.84% | fluid 11.2177 | solid 7.6775
  Impulse FP iterations last/mean/max 21/18.62/21
Step  1200/2000   60.0% | t 60.000 | ETA 3m 27s | step 0.28s | KE 18.9055 | drift -0.79% | fluid 12.1104 | solid 6.7951
  Impulse FP iterations last/mean/max 19/18.61/21
Step  1300/2000   65.0% | t 65.000 | ETA 3m 2s | step 0.27s | KE 18.8823 | drift -0.91% | fluid 10.7428 | solid 8.1395
  Impulse FP iterations last/mean/max 19/18.62/21
Step  1400/2000   70.0% | t 70.000 | ETA 2m 36s | step 0.27s | KE 18.8866 | drift -0.89% | fluid 10.0668 | solid 8.8198
  Impulse FP iterations last/mean/max 19/18.62/21
Step  1500/2000   75.0% | t 75.000 | ETA 2m 10s | step 0.25s | KE 18.9158 | drift -0.74% | fluid 11.0223 | solid 7.8935
  Impulse FP iterations last/mean/max 19/18.60/21
Step  1600/2000   80.0% | t 80.000 | ETA 1m 44s | step 0.25s | KE 18.9042 | drift -0.80% | fluid 11.5008 | solid 7.4035
  Impulse FP iterations last/mean/max 17/18.61/21
Step  1700/2000   85.0% | t 85.000 | ETA 1m 18s | step 0.24s | KE 18.8889 | drift -0.88% | fluid 10.2891 | solid 8.5998
  Impulse FP iterations last/mean/max 17/18.61/21
Step  1800/2000   90.0% | t 90.000 | ETA 52s | step 0.30s | KE 18.9212 | drift -0.71% | fluid 12.3727 | solid 6.5485
  Impulse FP iterations last/mean/max 21/18.61/21
Step  1900/2000   95.0% | t 95.000 | ETA 26s | step 0.25s | KE 18.9004 | drift -0.82% | fluid 9.0967 | solid 9.8037
  Impulse FP iterations last/mean/max 17/18.60/21
Solver finished successfully - good job!
Results saved successfully.

================== Run summary ==================
  Bodies:            2
  Triangles / nodes: 256 / 516
  Timesteps:         2000  (dt = 0.05)
  Simulated time:    0 -> 100
  First-step setup:  0.355 s
  Mean time/step:    0.2625 s  (excl. first step)
  Total wall time:   8m 45s
  Impulse FP iters last/mean/max: 21 / 18.590 / 21
  Approx impulse solves/step:     18.590
  Impulse start cache hits/direct: 1999 / 1
  Impulse global drift P/H:       2.431934e-8 / 1.013141e-2
  Impulse per-body max drift P/H: 2.730521e-8 / 6.415617e-3
  CPU cores:         256 available, 8 Rayon worker thread(s)
  Started:           2026-06-24 02:14:38
  Finished:          2026-06-24 02:23:24
  Output file:       /work/e643/e643/shared/multi_ellip/studies/two_body_paper_sweeps/runs/ellipsoid_1_0p8_0p6/ellipsoid_1_0p8_0p6_rho0p1_E4_sep8_run03_impulse_noproj/multiple_body_complete.dat
================================================
