
================ Simulation setup ================
  Run label:         /work/e643/e643/shared/multi_ellip/studies/departing_sphericity_sweep/runs/spheroid_oblate/homogeneous/spheroid_oblate_homogeneous_eps1_rho1_E0p5_sep8_run04_impulse_noproj/
  Started:           2026-06-24 02:30:09
  Input file:        /work/e643/e643/shared/multi_ellip/studies/departing_sphericity_sweep/runs/spheroid_oblate/homogeneous/spheroid_oblate_homogeneous_eps1_rho1_E0p5_sep8_run04_impulse_noproj/input.txt
  Output file:       /work/e643/e643/shared/multi_ellip/studies/departing_sphericity_sweep/runs/spheroid_oblate/homogeneous/spheroid_oblate_homogeneous_eps1_rho1_E0p5_sep8_run04_impulse_noproj/multiple_body_complete.dat
  Bodies:            2
  Fluid density:     1
  Mesh:              ndiv 2 -> 256 triangles / 516 nodes
  Simulated time:    0 -> 100  (dt = 0.05, ~2000 steps)
  Output cadence:    every 1 step(s)
  Output rows:       ~2001
  Progress cadence:  every 100 step(s)
  CPU cores:         256 available, 8 Rayon worker thread(s)
  Strong coupling:   disabled
  Impulse scheme:    enabled
  Hamiltonian step:  disabled
  Hamiltonian midpt: disabled
  Variational step:  disabled
  Energy projection: disabled
  Projection particular metric: Euclidean
  Fluid KE gradient: disabled  (eps = 0.001, scale = 1, linear = 1, angular = 1)
  Fluid KE discrete gradient: disabled
  Impulse pair metric correction: disabled  (mode = pair discrete-gradient, cutoff = all pairs, inner/outer = 0/0, eps = 0.001, linear scale = 1, angular scale = 0)
  Impulse metric correction: disabled  (internal load constraint = disabled)
  Impulse variational defect probe: disabled
  Impulse quadratic pressure: disabled  (scale = 1)
  Added-mass stab:   disabled
  Exact BEM geometry: disabled
  Exact singular BEM: disabled
  Legacy singular SLP diagnostic: disabled
  Phi-dot blend:     0 (off)

  Solver guidance:
    - Strong coupling: use for stiff close-coupled runs; slower but more implicit.
    - Impulse scheme: use when impulse/momentum conservation or KE drift is the focus. Recommended.
    - Added-mass stab: use for higher mesh counts (ndiv > 3) to preserve stability - deprecated.
================================================
Solver starting - good luck!

Initial state:
  Body  1
    density:          1.000000
    shape axes ratio: (1.000000, 1.000000, 0.125000)
    initial KE ratio: 0.500000
    position:         (-4.000000, 0.000000, 0.000000)
    velocity:         (-4.266808, -3.649444, 6.417729)
    angular velocity: (5.190100, 2.665906, -2.331143)
    orientation:      (w=-0.948802, i=-0.291439, j=-0.121773, k=-0.003057)
  Body  2
    density:          1.000000
    shape axes ratio: (1.000000, 1.000000, 0.125000)
    initial KE ratio: 0.500000
    position:         (4.000000, 0.000000, 0.000000)
    velocity:         (-5.031451, -4.303450, 7.567833)
    angular velocity: (1.103814, -3.846637, -4.843903)
    orientation:      (w=0.336194, i=-0.573970, j=-0.560578, k=-0.493238)

Preparing first step: implicit scheme, no bootstrap passes required.
First step may take longer than later steps.

First step completed in 0.634 s.

Step   100/2000    5.0% | t 5.000 | ETA 11m 3s | step 0.34s | KE 1943.7202 | drift +0.47% | fluid 1160.6943 | solid 783.0258
  Impulse FP iterations last/mean/max 23/23.87/30
Step   200/2000   10.0% | t 10.000 | ETA 10m 26s | step 0.34s | KE 1941.6936 | drift +0.37% | fluid 1337.4371 | solid 604.2564
  Impulse FP iterations last/mean/max 24/23.81/30
Step   300/2000   15.0% | t 15.000 | ETA 9m 52s | step 0.34s | KE 1942.7150 | drift +0.42% | fluid 1271.3862 | solid 671.3288
  Impulse FP iterations last/mean/max 24/23.82/30
Step   400/2000   20.0% | t 20.000 | ETA 9m 13s | step 0.35s | KE 1942.7913 | drift +0.42% | fluid 1236.2840 | solid 706.5073
  Impulse FP iterations last/mean/max 23/23.68/30
Step   500/2000   25.0% | t 25.000 | ETA 8m 38s | step 0.35s | KE 1941.4333 | drift +0.35% | fluid 1336.9055 | solid 604.5278
  Impulse FP iterations last/mean/max 25/23.71/30
Step   600/2000   30.0% | t 30.000 | ETA 8m 4s | step 0.40s | KE 1943.3013 | drift +0.45% | fluid 1222.1642 | solid 721.1371
  Impulse FP iterations last/mean/max 30/23.73/30
Step   700/2000   35.0% | t 35.000 | ETA 7m 24s | step 0.27s | KE 1942.5814 | drift +0.41% | fluid 1302.2133 | solid 640.3681
  Impulse FP iterations last/mean/max 21/23.70/30
Step   800/2000   40.0% | t 40.000 | ETA 6m 41s | step 0.32s | KE 1942.8026 | drift +0.43% | fluid 1284.0622 | solid 658.7404
  Impulse FP iterations last/mean/max 30/23.69/30
Step   900/2000   45.0% | t 45.000 | ETA 5m 57s | step 0.25s | KE 1942.8683 | drift +0.43% | fluid 1241.4283 | solid 701.4400
  Impulse FP iterations last/mean/max 25/23.67/30
Step  1000/2000   50.0% | t 50.000 | ETA 5m 17s | step 0.29s | KE 1941.5858 | drift +0.36% | fluid 1316.3214 | solid 625.2644
  Impulse FP iterations last/mean/max 30/23.66/30
Step  1100/2000   55.0% | t 55.000 | ETA 4m 37s | step 0.18s | KE 1942.3058 | drift +0.40% | fluid 1258.0314 | solid 684.2744
  Impulse FP iterations last/mean/max 21/23.65/30
Step  1200/2000   60.0% | t 60.000 | ETA 3m 58s | step 0.22s | KE 1942.8716 | drift +0.43% | fluid 1249.9527 | solid 692.9189
  Impulse FP iterations last/mean/max 27/23.59/30
Step  1300/2000   65.0% | t 65.000 | ETA 3m 23s | step 0.23s | KE 1941.2047 | drift +0.34% | fluid 1356.8361 | solid 584.3687
  Impulse FP iterations last/mean/max 29/23.60/30
Step  1400/2000   70.0% | t 70.000 | ETA 2m 50s | step 0.19s | KE 1943.9296 | drift +0.48% | fluid 1145.8066 | solid 798.1230
  Impulse FP iterations last/mean/max 22/23.59/30
Step  1500/2000   75.0% | t 75.000 | ETA 2m 19s | step 0.21s | KE 1939.2813 | drift +0.24% | fluid 1436.0111 | solid 503.2703
  Impulse FP iterations last/mean/max 25/23.61/30
Step  1600/2000   80.0% | t 80.000 | ETA 1m 49s | step 0.24s | KE 1943.9240 | drift +0.48% | fluid 1117.2415 | solid 826.6825
  Impulse FP iterations last/mean/max 27/23.59/30
Step  1700/2000   85.0% | t 85.000 | ETA 1m 21s | step 0.26s | KE 1940.0672 | drift +0.28% | fluid 1406.9606 | solid 533.1065
  Impulse FP iterations last/mean/max 30/23.60/30
Step  1800/2000   90.0% | t 90.000 | ETA 53s | step 0.21s | KE 1943.5658 | drift +0.46% | fluid 1192.7443 | solid 750.8214
  Impulse FP iterations last/mean/max 22/23.59/30
Step  1900/2000   95.0% | t 95.000 | ETA 26s | step 0.21s | KE 1941.6330 | drift +0.37% | fluid 1307.8475 | solid 633.7855
  Impulse FP iterations last/mean/max 23/23.61/30
Solver finished successfully - good job!
Results saved successfully.

================== Run summary ==================
  Bodies:            2
  Triangles / nodes: 256 / 516
  Timesteps:         2000  (dt = 0.05)
  Simulated time:    0 -> 100
  First-step setup:  0.634 s
  Mean time/step:    0.2633 s  (excl. first step)
  Total wall time:   8m 46s
  Impulse FP iters last/mean/max: 23 / 23.600 / 30
  Approx impulse solves/step:     23.601
  Impulse start cache hits/direct: 1999 / 1
  Impulse global drift P/H:       6.590737e-10 / 7.210971e-4
  Impulse per-body max drift P/H: 1.044558e-9 / 2.688813e-4
  CPU cores:         256 available, 8 Rayon worker thread(s)
  Started:           2026-06-24 02:30:09
  Finished:          2026-06-24 02:38:56
  Output file:       /work/e643/e643/shared/multi_ellip/studies/departing_sphericity_sweep/runs/spheroid_oblate/homogeneous/spheroid_oblate_homogeneous_eps1_rho1_E0p5_sep8_run04_impulse_noproj/multiple_body_complete.dat
================================================
