
================ Simulation setup ================
  Run label:         /work/e643/e643/shared/multi_ellip/studies/two_body_paper_sweeps/runs/spheroid_1_0p7_0p7/spheroid_1_0p7_0p7_rho0p03_E11_sep8_run01_impulse_noproj/
  Started:           2026-06-22 20:09:22
  Input file:        /work/e643/e643/shared/multi_ellip/studies/two_body_paper_sweeps/runs/spheroid_1_0p7_0p7/spheroid_1_0p7_0p7_rho0p03_E11_sep8_run01_impulse_noproj/input.txt
  Output file:       /work/e643/e643/shared/multi_ellip/studies/two_body_paper_sweeps/runs/spheroid_1_0p7_0p7/spheroid_1_0p7_0p7_rho0p03_E11_sep8_run01_impulse_noproj/multiple_body_complete.dat
  Bodies:            2
  Fluid density:     1
  Mesh:              ndiv 2 -> 256 triangles / 516 nodes
  Simulated time:    0 -> 100  (dt = 0.05, ~2000 steps)
  Output cadence:    every 1 step(s)
  Output rows:       ~2001
  Progress cadence:  every 100 step(s)
  CPU cores:         256 available, 8 Rayon worker thread(s)
  Strong coupling:   disabled
  Impulse scheme:    enabled
  Hamiltonian step:  disabled
  Hamiltonian midpt: disabled
  Variational step:  disabled
  Energy projection: disabled
  Projection particular metric: Euclidean
  Fluid KE gradient: disabled  (eps = 0.001, scale = 1, linear = 1, angular = 1)
  Fluid KE discrete gradient: disabled
  Impulse pair metric correction: disabled  (mode = pair discrete-gradient, cutoff = all pairs, inner/outer = 0/0, eps = 0.001, linear scale = 1, angular scale = 0)
  Impulse metric correction: disabled  (internal load constraint = disabled)
  Impulse variational defect probe: disabled
  Impulse quadratic pressure: disabled  (scale = 1)
  Added-mass stab:   disabled
  Exact BEM geometry: disabled
  Exact singular BEM: disabled
  Legacy singular SLP diagnostic: disabled
  Phi-dot blend:     0 (off)

  Solver guidance:
    - Strong coupling: use for stiff close-coupled runs; slower but more implicit.
    - Impulse scheme: use when impulse/momentum conservation or KE drift is the focus. Recommended.
    - Added-mass stab: use for higher mesh counts (ndiv > 3) to preserve stability - deprecated.
================================================
Solver starting - good luck!

Initial state:
  Body  1
    density:          0.030000
    shape axes ratio: (1.000000, 0.700000, 0.700000)
    initial KE ratio: 11.000000
    position:         (-4.000000, 0.000000, 0.000000)
    velocity:         (0.844581, -0.938673, -0.305464)
    angular velocity: (1.487793, 2.476246, -5.579704)
    orientation:      (w=0.447214, i=0.894427, j=0.000000, k=0.000000)
  Body  2
    density:          0.030000
    shape axes ratio: (1.000000, 0.700000, 0.700000)
    initial KE ratio: 11.000000
    position:         (4.000000, 0.000000, 0.000000)
    velocity:         (0.756078, -0.840311, -0.273455)
    angular velocity: (4.967879, 3.788122, -0.669873)
    orientation:      (w=0.707107, i=0.000000, j=0.707107, k=0.000000)

Preparing first step: implicit scheme, no bootstrap passes required.
First step may take longer than later steps.

First step completed in 0.385 s.

Step   100/2000    5.0% | t 5.000 | ETA 8m 37s | step 0.29s | KE 11.9298 | drift -5.04% | fluid 9.5438 | solid 2.3859
  Impulse FP iterations last/mean/max 21/18.98/25
Step   200/2000   10.0% | t 10.000 | ETA 8m 12s | step 0.24s | KE 11.6818 | drift -7.02% | fluid 9.7526 | solid 1.9293
  Impulse FP iterations last/mean/max 17/19.11/25
Step   300/2000   15.0% | t 15.000 | ETA 7m 41s | step 0.23s | KE 11.5159 | drift -8.34% | fluid 9.2903 | solid 2.2256
  Impulse FP iterations last/mean/max 16/18.97/25
Step   400/2000   20.0% | t 20.000 | ETA 7m 8s | step 0.24s | KE 11.5715 | drift -7.90% | fluid 9.5930 | solid 1.9785
  Impulse FP iterations last/mean/max 17/18.72/25
Step   500/2000   25.0% | t 25.000 | ETA 6m 37s | step 0.24s | KE 11.5774 | drift -7.85% | fluid 9.4028 | solid 2.1747
  Impulse FP iterations last/mean/max 18/18.53/25
Step   600/2000   30.0% | t 30.000 | ETA 6m 8s | step 0.27s | KE 11.6465 | drift -7.30% | fluid 9.6144 | solid 2.0321
  Impulse FP iterations last/mean/max 18/18.42/25
Step   700/2000   35.0% | t 35.000 | ETA 5m 41s | step 0.27s | KE 11.6464 | drift -7.30% | fluid 9.4684 | solid 2.1780
  Impulse FP iterations last/mean/max 18/18.35/25
Step   800/2000   40.0% | t 40.000 | ETA 5m 13s | step 0.25s | KE 11.6858 | drift -6.99% | fluid 9.6383 | solid 2.0475
  Impulse FP iterations last/mean/max 17/18.28/25
Step   900/2000   45.0% | t 45.000 | ETA 4m 46s | step 0.22s | KE 11.6569 | drift -7.22% | fluid 9.4735 | solid 2.1834
  Impulse FP iterations last/mean/max 16/18.23/25
Step  1000/2000   50.0% | t 50.000 | ETA 4m 20s | step 0.25s | KE 11.6761 | drift -7.06% | fluid 9.6408 | solid 2.0353
  Impulse FP iterations last/mean/max 18/18.18/25
Step  1100/2000   55.0% | t 55.000 | ETA 3m 53s | step 0.27s | KE 11.6429 | drift -7.33% | fluid 9.4789 | solid 2.1640
  Impulse FP iterations last/mean/max 18/18.16/25
Step  1200/2000   60.0% | t 60.000 | ETA 3m 27s | step 0.23s | KE 11.6604 | drift -7.19% | fluid 9.6078 | solid 2.0526
  Impulse FP iterations last/mean/max 17/18.13/25
Step  1300/2000   65.0% | t 65.000 | ETA 3m 1s | step 0.25s | KE 11.6383 | drift -7.36% | fluid 9.4938 | solid 2.1446
  Impulse FP iterations last/mean/max 18/18.11/25
Step  1400/2000   70.0% | t 70.000 | ETA 2m 35s | step 0.25s | KE 11.6524 | drift -7.25% | fluid 9.5890 | solid 2.0634
  Impulse FP iterations last/mean/max 18/18.09/25
Step  1500/2000   75.0% | t 75.000 | ETA 2m 9s | step 0.26s | KE 11.6454 | drift -7.31% | fluid 9.5285 | solid 2.1169
  Impulse FP iterations last/mean/max 18/18.07/25
Step  1600/2000   80.0% | t 80.000 | ETA 1m 43s | step 0.25s | KE 11.6540 | drift -7.24% | fluid 9.5556 | solid 2.0984
  Impulse FP iterations last/mean/max 18/18.05/25
Step  1700/2000   85.0% | t 85.000 | ETA 1m 17s | step 0.26s | KE 11.6562 | drift -7.22% | fluid 9.5610 | solid 2.0951
  Impulse FP iterations last/mean/max 18/18.04/25
Step  1800/2000   90.0% | t 90.000 | ETA 51s | step 0.26s | KE 11.6514 | drift -7.26% | fluid 9.5368 | solid 2.1146
  Impulse FP iterations last/mean/max 19/18.03/25
Step  1900/2000   95.0% | t 95.000 | ETA 25s | step 0.27s | KE 11.6611 | drift -7.18% | fluid 9.5914 | solid 2.0697
  Impulse FP iterations last/mean/max 19/18.02/25
Solver finished successfully - good job!
Results saved successfully.

================== Run summary ==================
  Bodies:            2
  Triangles / nodes: 256 / 516
  Timesteps:         2000  (dt = 0.05)
  Simulated time:    0 -> 100
  First-step setup:  0.385 s
  Mean time/step:    0.2569 s  (excl. first step)
  Total wall time:   8m 33s
  Impulse FP iters last/mean/max: 18 / 18.015 / 25
  Approx impulse solves/step:     18.015
  Impulse start cache hits/direct: 1999 / 1
  Impulse global drift P/H:       9.145932e-8 / 7.311542e-3
  Impulse per-body max drift P/H: 1.300174e-7 / 5.023246e-4
  CPU cores:         256 available, 8 Rayon worker thread(s)
  Started:           2026-06-22 20:09:22
  Finished:          2026-06-22 20:17:56
  Output file:       /work/e643/e643/shared/multi_ellip/studies/two_body_paper_sweeps/runs/spheroid_1_0p7_0p7/spheroid_1_0p7_0p7_rho0p03_E11_sep8_run01_impulse_noproj/multiple_body_complete.dat
================================================
