
================ Simulation setup ================
  Run label:         /work/e643/e643/shared/multi_ellip/studies/two_body_paper_sweeps/runs/spheroid_1_0p7_0p7/spheroid_1_0p7_0p7_rho0p3_E4_sep5_run01_impulse_noproj/
  Started:           2026-06-22 19:45:51
  Input file:        /work/e643/e643/shared/multi_ellip/studies/two_body_paper_sweeps/runs/spheroid_1_0p7_0p7/spheroid_1_0p7_0p7_rho0p3_E4_sep5_run01_impulse_noproj/input.txt
  Output file:       /work/e643/e643/shared/multi_ellip/studies/two_body_paper_sweeps/runs/spheroid_1_0p7_0p7/spheroid_1_0p7_0p7_rho0p3_E4_sep5_run01_impulse_noproj/multiple_body_complete.dat
  Bodies:            2
  Fluid density:     1
  Mesh:              ndiv 2 -> 256 triangles / 516 nodes
  Simulated time:    0 -> 100  (dt = 0.05, ~2000 steps)
  Output cadence:    every 1 step(s)
  Output rows:       ~2001
  Progress cadence:  every 100 step(s)
  CPU cores:         256 available, 8 Rayon worker thread(s)
  Strong coupling:   disabled
  Impulse scheme:    enabled
  Hamiltonian step:  disabled
  Hamiltonian midpt: disabled
  Variational step:  disabled
  Energy projection: disabled
  Projection particular metric: Euclidean
  Fluid KE gradient: disabled  (eps = 0.001, scale = 1, linear = 1, angular = 1)
  Fluid KE discrete gradient: disabled
  Impulse pair metric correction: disabled  (mode = pair discrete-gradient, cutoff = all pairs, inner/outer = 0/0, eps = 0.001, linear scale = 1, angular scale = 0)
  Impulse metric correction: disabled  (internal load constraint = disabled)
  Impulse variational defect probe: disabled
  Impulse quadratic pressure: disabled  (scale = 1)
  Added-mass stab:   disabled
  Exact BEM geometry: disabled
  Exact singular BEM: disabled
  Legacy singular SLP diagnostic: disabled
  Phi-dot blend:     0 (off)

  Solver guidance:
    - Strong coupling: use for stiff close-coupled runs; slower but more implicit.
    - Impulse scheme: use when impulse/momentum conservation or KE drift is the focus. Recommended.
    - Added-mass stab: use for higher mesh counts (ndiv > 3) to preserve stability - deprecated.
================================================
Solver starting - good luck!

Initial state:
  Body  1
    density:          0.300000
    shape axes ratio: (1.000000, 0.700000, 0.700000)
    initial KE ratio: 4.000000
    position:         (-2.500000, 0.000000, 0.000000)
    velocity:         (0.264415, 2.005418, -0.550023)
    angular velocity: (2.869987, 5.587938, 0.128589)
    orientation:      (w=0.447214, i=0.894427, j=0.000000, k=0.000000)
  Body  2
    density:          0.300000
    shape axes ratio: (1.000000, 0.700000, 0.700000)
    initial KE ratio: 4.000000
    position:         (2.500000, 0.000000, 0.000000)
    velocity:         (0.248843, 1.887316, -0.517632)
    angular velocity: (4.525496, 4.354936, -0.181214)
    orientation:      (w=0.707107, i=0.000000, j=0.707107, k=0.000000)

Preparing first step: implicit scheme, no bootstrap passes required.
First step may take longer than later steps.

First step completed in 0.267 s.

Step   100/2000    5.0% | t 5.000 | ETA 3m 20s | step 0.11s | KE 45.0609 | drift -0.86% | fluid 17.2248 | solid 27.8361
  Impulse FP iterations last/mean/max 12/12.01/13
Step   200/2000   10.0% | t 10.000 | ETA 3m 20s | step 0.13s | KE 44.9962 | drift -1.00% | fluid 17.2265 | solid 27.7696
  Impulse FP iterations last/mean/max 11/11.88/13
Step   300/2000   15.0% | t 15.000 | ETA 3m 24s | step 0.13s | KE 45.2505 | drift -0.44% | fluid 17.3012 | solid 27.9492
  Impulse FP iterations last/mean/max 11/11.86/13
Step   400/2000   20.0% | t 20.000 | ETA 3m 28s | step 0.15s | KE 45.1104 | drift -0.75% | fluid 17.2557 | solid 27.8547
  Impulse FP iterations last/mean/max 11/11.80/13
Step   500/2000   25.0% | t 25.000 | ETA 3m 26s | step 0.17s | KE 45.2885 | drift -0.36% | fluid 17.3155 | solid 27.9730
  Impulse FP iterations last/mean/max 12/11.78/13
Step   600/2000   30.0% | t 30.000 | ETA 3m 19s | step 0.16s | KE 45.1647 | drift -0.63% | fluid 17.2594 | solid 27.9054
  Impulse FP iterations last/mean/max 11/11.72/13
Step   700/2000   35.0% | t 35.000 | ETA 3m 9s | step 0.16s | KE 45.3099 | drift -0.31% | fluid 17.3032 | solid 28.0067
  Impulse FP iterations last/mean/max 11/11.68/13
Step   800/2000   40.0% | t 40.000 | ETA 2m 57s | step 0.15s | KE 45.2093 | drift -0.53% | fluid 17.2560 | solid 27.9532
  Impulse FP iterations last/mean/max 11/11.64/13
Step   900/2000   45.0% | t 45.000 | ETA 2m 44s | step 0.17s | KE 45.3075 | drift -0.31% | fluid 17.2937 | solid 28.0138
  Impulse FP iterations last/mean/max 12/11.60/13
Step  1000/2000   50.0% | t 50.000 | ETA 2m 30s | step 0.16s | KE 45.2678 | drift -0.40% | fluid 17.2641 | solid 28.0037
  Impulse FP iterations last/mean/max 11/11.56/13
Step  1100/2000   55.0% | t 55.000 | ETA 2m 16s | step 0.16s | KE 45.3038 | drift -0.32% | fluid 17.2882 | solid 28.0157
  Impulse FP iterations last/mean/max 11/11.53/13
Step  1200/2000   60.0% | t 60.000 | ETA 2m 1s | step 0.16s | KE 45.2914 | drift -0.35% | fluid 17.2689 | solid 28.0225
  Impulse FP iterations last/mean/max 11/11.51/13
Step  1300/2000   65.0% | t 65.000 | ETA 1m 46s | step 0.15s | KE 45.2965 | drift -0.34% | fluid 17.2902 | solid 28.0063
  Impulse FP iterations last/mean/max 11/11.47/13
Step  1400/2000   70.0% | t 70.000 | ETA 1m 31s | step 0.15s | KE 45.2792 | drift -0.38% | fluid 17.2721 | solid 28.0071
  Impulse FP iterations last/mean/max 11/11.45/13
Step  1500/2000   75.0% | t 75.000 | ETA 1m 16s | step 0.17s | KE 45.2980 | drift -0.34% | fluid 17.2966 | solid 28.0014
  Impulse FP iterations last/mean/max 11/11.42/13
Step  1600/2000   80.0% | t 80.000 | ETA 1m 1s | step 0.18s | KE 45.2758 | drift -0.38% | fluid 17.2828 | solid 27.9930
  Impulse FP iterations last/mean/max 12/11.40/13
Step  1700/2000   85.0% | t 85.000 | ETA 46s | step 0.17s | KE 45.3005 | drift -0.33% | fluid 17.3100 | solid 27.9906
  Impulse FP iterations last/mean/max 11/11.38/13
Step  1800/2000   90.0% | t 90.000 | ETA 30s | step 0.16s | KE 45.2833 | drift -0.37% | fluid 17.2921 | solid 27.9912
  Impulse FP iterations last/mean/max 11/11.37/13
Step  1900/2000   95.0% | t 95.000 | ETA 15s | step 0.14s | KE 45.2985 | drift -0.33% | fluid 17.3059 | solid 27.9926
  Impulse FP iterations last/mean/max 11/11.35/13
Solver finished successfully - good job!
Results saved successfully.

================== Run summary ==================
  Bodies:            2
  Triangles / nodes: 256 / 516
  Timesteps:         2000  (dt = 0.05)
  Simulated time:    0 -> 100
  First-step setup:  0.267 s
  Mean time/step:    0.1546 s  (excl. first step)
  Total wall time:   5m 9s
  Impulse FP iters last/mean/max: 12 / 11.341 / 13
  Approx impulse solves/step:     11.342
  Impulse start cache hits/direct: 1999 / 1
  Impulse global drift P/H:       3.255482e-8 / 1.164854e-2
  Impulse per-body max drift P/H: 3.948904e-8 / 2.620355e-3
  CPU cores:         256 available, 8 Rayon worker thread(s)
  Started:           2026-06-22 19:45:51
  Finished:          2026-06-22 19:51:03
  Output file:       /work/e643/e643/shared/multi_ellip/studies/two_body_paper_sweeps/runs/spheroid_1_0p7_0p7/spheroid_1_0p7_0p7_rho0p3_E4_sep5_run01_impulse_noproj/multiple_body_complete.dat
================================================
