
================ Simulation setup ================
  Run label:         /work/e643/e643/shared/multi_ellip/studies/two_body_paper_sweeps/runs/spheroid_1_0p7_0p7/spheroid_1_0p7_0p7_rho0p3_E0p55_sep5_run03_impulse_noproj/
  Started:           2026-06-24 01:46:03
  Input file:        /work/e643/e643/shared/multi_ellip/studies/two_body_paper_sweeps/runs/spheroid_1_0p7_0p7/spheroid_1_0p7_0p7_rho0p3_E0p55_sep5_run03_impulse_noproj/input.txt
  Output file:       /work/e643/e643/shared/multi_ellip/studies/two_body_paper_sweeps/runs/spheroid_1_0p7_0p7/spheroid_1_0p7_0p7_rho0p3_E0p55_sep5_run03_impulse_noproj/multiple_body_complete.dat
  Bodies:            2
  Fluid density:     1
  Mesh:              ndiv 2 -> 256 triangles / 516 nodes
  Simulated time:    0 -> 100  (dt = 0.05, ~2000 steps)
  Output cadence:    every 1 step(s)
  Output rows:       ~2001
  Progress cadence:  every 100 step(s)
  CPU cores:         256 available, 8 Rayon worker thread(s)
  Strong coupling:   disabled
  Impulse scheme:    enabled
  Hamiltonian step:  disabled
  Hamiltonian midpt: disabled
  Variational step:  disabled
  Energy projection: disabled
  Projection particular metric: Euclidean
  Fluid KE gradient: disabled  (eps = 0.001, scale = 1, linear = 1, angular = 1)
  Fluid KE discrete gradient: disabled
  Impulse pair metric correction: disabled  (mode = pair discrete-gradient, cutoff = all pairs, inner/outer = 0/0, eps = 0.001, linear scale = 1, angular scale = 0)
  Impulse metric correction: disabled  (internal load constraint = disabled)
  Impulse variational defect probe: disabled
  Impulse quadratic pressure: disabled  (scale = 1)
  Added-mass stab:   disabled
  Exact BEM geometry: disabled
  Exact singular BEM: disabled
  Legacy singular SLP diagnostic: disabled
  Phi-dot blend:     0 (off)

  Solver guidance:
    - Strong coupling: use for stiff close-coupled runs; slower but more implicit.
    - Impulse scheme: use when impulse/momentum conservation or KE drift is the focus. Recommended.
    - Added-mass stab: use for higher mesh counts (ndiv > 3) to preserve stability - deprecated.
================================================
Solver starting - good luck!

Initial state:
  Body  1
    density:          0.300000
    shape axes ratio: (1.000000, 0.700000, 0.700000)
    initial KE ratio: 0.550000
    position:         (-2.500000, 0.000000, 0.000000)
    velocity:         (3.782857, 3.746545, -0.609063)
    angular velocity: (-4.369760, -3.373622, 3.000381)
    orientation:      (w=0.776573, i=-0.435741, j=-0.394489, k=-0.226810)
  Body  2
    density:          0.300000
    shape axes ratio: (1.000000, 0.700000, 0.700000)
    initial KE ratio: 0.550000
    position:         (2.500000, 0.000000, 0.000000)
    velocity:         (3.997444, 3.959073, -0.643613)
    angular velocity: (-2.804631, -0.076424, 5.621977)
    orientation:      (w=0.583150, i=-0.097659, j=0.683689, k=0.427749)

Preparing first step: implicit scheme, no bootstrap passes required.
First step may take longer than later steps.

First step completed in 0.296 s.

Step   100/2000    5.0% | t 5.000 | ETA 5m 27s | step 0.18s | KE 145.1808 | drift -1.43% | fluid 86.8433 | solid 58.3375
  Impulse FP iterations last/mean/max 12/12.40/13
Step   200/2000   10.0% | t 10.000 | ETA 5m 10s | step 0.18s | KE 144.9793 | drift -1.57% | fluid 86.8637 | solid 58.1156
  Impulse FP iterations last/mean/max 13/12.28/13
Step   300/2000   15.0% | t 15.000 | ETA 4m 53s | step 0.18s | KE 144.9555 | drift -1.59% | fluid 86.8981 | solid 58.0574
  Impulse FP iterations last/mean/max 13/12.25/13
Step   400/2000   20.0% | t 20.000 | ETA 4m 36s | step 0.18s | KE 144.9522 | drift -1.59% | fluid 86.9246 | solid 58.0276
  Impulse FP iterations last/mean/max 13/12.21/13
Step   500/2000   25.0% | t 25.000 | ETA 4m 19s | step 0.20s | KE 144.9509 | drift -1.59% | fluid 86.9368 | solid 58.0140
  Impulse FP iterations last/mean/max 13/12.20/13
Step   600/2000   30.0% | t 30.000 | ETA 4m 1s | step 0.17s | KE 144.9501 | drift -1.59% | fluid 86.9327 | solid 58.0174
  Impulse FP iterations last/mean/max 12/12.18/13
Step   700/2000   35.0% | t 35.000 | ETA 3m 44s | step 0.18s | KE 144.9481 | drift -1.59% | fluid 86.9125 | solid 58.0357
  Impulse FP iterations last/mean/max 13/12.18/14
Step   800/2000   40.0% | t 40.000 | ETA 3m 27s | step 0.17s | KE 144.9414 | drift -1.60% | fluid 86.8790 | solid 58.0625
  Impulse FP iterations last/mean/max 12/12.17/14
Step   900/2000   45.0% | t 45.000 | ETA 3m 10s | step 0.16s | KE 144.9303 | drift -1.60% | fluid 86.8391 | solid 58.0912
  Impulse FP iterations last/mean/max 11/12.17/14
Step  1000/2000   50.0% | t 50.000 | ETA 2m 53s | step 0.15s | KE 144.9245 | drift -1.61% | fluid 86.8044 | solid 58.1201
  Impulse FP iterations last/mean/max 11/12.16/14
Step  1100/2000   55.0% | t 55.000 | ETA 2m 35s | step 0.16s | KE 144.9399 | drift -1.60% | fluid 86.7871 | solid 58.1528
  Impulse FP iterations last/mean/max 11/12.16/14
Step  1200/2000   60.0% | t 60.000 | ETA 2m 18s | step 0.17s | KE 144.9833 | drift -1.57% | fluid 86.7927 | solid 58.1906
  Impulse FP iterations last/mean/max 11/12.15/14
Step  1300/2000   65.0% | t 65.000 | ETA 2m 1s | step 0.18s | KE 145.0426 | drift -1.53% | fluid 86.8155 | solid 58.2270
  Impulse FP iterations last/mean/max 12/12.15/14
Step  1400/2000   70.0% | t 70.000 | ETA 1m 43s | step 0.16s | KE 145.0967 | drift -1.49% | fluid 86.8428 | solid 58.2539
  Impulse FP iterations last/mean/max 12/12.15/14
Step  1500/2000   75.0% | t 75.000 | ETA 1m 26s | step 0.15s | KE 145.1309 | drift -1.47% | fluid 86.8626 | solid 58.2683
  Impulse FP iterations last/mean/max 12/12.15/14
Step  1600/2000   80.0% | t 80.000 | ETA 1m 8s | step 0.15s | KE 145.1403 | drift -1.46% | fluid 86.8677 | solid 58.2727
  Impulse FP iterations last/mean/max 12/12.15/14
Step  1700/2000   85.0% | t 85.000 | ETA 50s | step 0.15s | KE 145.1244 | drift -1.47% | fluid 86.8563 | solid 58.2682
  Impulse FP iterations last/mean/max 12/12.15/14
Step  1800/2000   90.0% | t 90.000 | ETA 33s | step 0.16s | KE 145.0843 | drift -1.50% | fluid 86.8315 | solid 58.2528
  Impulse FP iterations last/mean/max 12/12.15/14
Step  1900/2000   95.0% | t 95.000 | ETA 16s | step 0.16s | KE 145.0269 | drift -1.54% | fluid 86.8018 | solid 58.2251
  Impulse FP iterations last/mean/max 11/12.15/14
Solver finished successfully - good job!
Results saved successfully.

================== Run summary ==================
  Bodies:            2
  Triangles / nodes: 256 / 516
  Timesteps:         2000  (dt = 0.05)
  Simulated time:    0 -> 100
  First-step setup:  0.296 s
  Mean time/step:    0.1694 s  (excl. first step)
  Total wall time:   5m 38s
  Impulse FP iters last/mean/max: 12 / 12.143 / 14
  Approx impulse solves/step:     12.144
  Impulse start cache hits/direct: 1999 / 1
  Impulse global drift P/H:       5.245864e-8 / 3.833188e-3
  Impulse per-body max drift P/H: 6.111896e-8 / 8.101373e-4
  CPU cores:         256 available, 8 Rayon worker thread(s)
  Started:           2026-06-24 01:46:03
  Finished:          2026-06-24 01:51:42
  Output file:       /work/e643/e643/shared/multi_ellip/studies/two_body_paper_sweeps/runs/spheroid_1_0p7_0p7/spheroid_1_0p7_0p7_rho0p3_E0p55_sep5_run03_impulse_noproj/multiple_body_complete.dat
================================================
