
================ Simulation setup ================
  Run label:         /work/e643/e643/shared/multi_ellip/studies/two_body_paper_sweeps/runs/ellipsoid_1_0p8_0p6/ellipsoid_1_0p8_0p6_rho10_E0p55_sep5_run03_impulse_noproj/
  Started:           2026-06-24 01:17:40
  Input file:        /work/e643/e643/shared/multi_ellip/studies/two_body_paper_sweeps/runs/ellipsoid_1_0p8_0p6/ellipsoid_1_0p8_0p6_rho10_E0p55_sep5_run03_impulse_noproj/input.txt
  Output file:       /work/e643/e643/shared/multi_ellip/studies/two_body_paper_sweeps/runs/ellipsoid_1_0p8_0p6/ellipsoid_1_0p8_0p6_rho10_E0p55_sep5_run03_impulse_noproj/multiple_body_complete.dat
  Bodies:            2
  Fluid density:     1
  Mesh:              ndiv 2 -> 256 triangles / 516 nodes
  Simulated time:    0 -> 100  (dt = 0.05, ~2000 steps)
  Output cadence:    every 1 step(s)
  Output rows:       ~2001
  Progress cadence:  every 100 step(s)
  CPU cores:         256 available, 8 Rayon worker thread(s)
  Strong coupling:   disabled
  Impulse scheme:    enabled
  Hamiltonian step:  disabled
  Hamiltonian midpt: disabled
  Variational step:  disabled
  Energy projection: disabled
  Projection particular metric: Euclidean
  Fluid KE gradient: disabled  (eps = 0.001, scale = 1, linear = 1, angular = 1)
  Fluid KE discrete gradient: disabled
  Impulse pair metric correction: disabled  (mode = pair discrete-gradient, cutoff = all pairs, inner/outer = 0/0, eps = 0.001, linear scale = 1, angular scale = 0)
  Impulse metric correction: disabled  (internal load constraint = disabled)
  Impulse variational defect probe: disabled
  Impulse quadratic pressure: disabled  (scale = 1)
  Added-mass stab:   disabled
  Exact BEM geometry: disabled
  Exact singular BEM: disabled
  Legacy singular SLP diagnostic: disabled
  Phi-dot blend:     0 (off)

  Solver guidance:
    - Strong coupling: use for stiff close-coupled runs; slower but more implicit.
    - Impulse scheme: use when impulse/momentum conservation or KE drift is the focus. Recommended.
    - Added-mass stab: use for higher mesh counts (ndiv > 3) to preserve stability - deprecated.
================================================
Solver starting - good luck!

Initial state:
  Body  1
    density:          10.000000
    shape axes ratio: (1.000000, 0.800000, 0.600000)
    initial KE ratio: 0.550000
    position:         (-2.500000, 0.000000, 0.000000)
    velocity:         (-1.095679, -2.880343, 5.079887)
    angular velocity: (2.669941, 1.543552, 5.474238)
    orientation:      (w=0.724695, i=-0.350943, j=-0.588049, k=0.076520)
  Body  2
    density:          10.000000
    shape axes ratio: (1.000000, 0.800000, 0.600000)
    initial KE ratio: 0.550000
    position:         (2.500000, 0.000000, 0.000000)
    velocity:         (-0.980170, -2.576692, 4.544355)
    angular velocity: (4.105678, -4.754010, -0.145664)
    orientation:      (w=0.530640, i=0.493371, j=-0.040702, k=-0.688004)

Preparing first step: implicit scheme, no bootstrap passes required.
First step may take longer than later steps.

First step completed in 6.996 s.

Step   100/2000    5.0% | t 5.000 | ETA 3m 13s | step 0.10s | KE 2023.3784 | drift -0.35% | fluid 79.5329 | solid 1943.8455
  Impulse FP iterations last/mean/max 7/7.12/8
Step   200/2000   10.0% | t 10.000 | ETA 3m 3s | step 0.09s | KE 2021.6538 | drift -0.43% | fluid 93.8331 | solid 1927.8207
  Impulse FP iterations last/mean/max 7/7.12/8
Step   300/2000   15.0% | t 15.000 | ETA 2m 49s | step 0.09s | KE 2028.7992 | drift -0.08% | fluid 87.7593 | solid 1941.0399
  Impulse FP iterations last/mean/max 7/7.14/8
Step   400/2000   20.0% | t 20.000 | ETA 2m 35s | step 0.09s | KE 2032.5788 | drift +0.11% | fluid 85.3039 | solid 1947.2749
  Impulse FP iterations last/mean/max 7/7.13/8
Step   500/2000   25.0% | t 25.000 | ETA 2m 25s | step 0.10s | KE 2033.1133 | drift +0.13% | fluid 86.4377 | solid 1946.6756
  Impulse FP iterations last/mean/max 8/7.15/8
Step   600/2000   30.0% | t 30.000 | ETA 2m 16s | step 0.10s | KE 2032.7836 | drift +0.12% | fluid 85.6565 | solid 1947.1271
  Impulse FP iterations last/mean/max 7/7.14/8
Step   700/2000   35.0% | t 35.000 | ETA 2m 7s | step 0.10s | KE 2032.1081 | drift +0.08% | fluid 95.1568 | solid 1936.9513
  Impulse FP iterations last/mean/max 7/7.14/8
Step   800/2000   40.0% | t 40.000 | ETA 1m 58s | step 0.09s | KE 2032.7080 | drift +0.11% | fluid 82.8173 | solid 1949.8907
  Impulse FP iterations last/mean/max 7/7.15/8
Step   900/2000   45.0% | t 45.000 | ETA 1m 49s | step 0.10s | KE 2033.1457 | drift +0.14% | fluid 73.4210 | solid 1959.7247
  Impulse FP iterations last/mean/max 7/7.14/8
Step  1000/2000   50.0% | t 50.000 | ETA 1m 39s | step 0.10s | KE 2032.6661 | drift +0.11% | fluid 84.3887 | solid 1948.2774
  Impulse FP iterations last/mean/max 7/7.15/8
Step  1100/2000   55.0% | t 55.000 | ETA 1m 29s | step 0.09s | KE 2033.0768 | drift +0.13% | fluid 77.7810 | solid 1955.2958
  Impulse FP iterations last/mean/max 7/7.14/8
Step  1200/2000   60.0% | t 60.000 | ETA 1m 19s | step 0.10s | KE 2033.0261 | drift +0.13% | fluid 71.6654 | solid 1961.3607
  Impulse FP iterations last/mean/max 7/7.14/8
Step  1300/2000   65.0% | t 65.000 | ETA 1m 9s | step 0.10s | KE 2032.8315 | drift +0.12% | fluid 79.3081 | solid 1953.5234
  Impulse FP iterations last/mean/max 7/7.15/8
Step  1400/2000   70.0% | t 70.000 | ETA 1m 0s | step 0.10s | KE 2033.3459 | drift +0.15% | fluid 72.1569 | solid 1961.1890
  Impulse FP iterations last/mean/max 7/7.14/8
Step  1500/2000   75.0% | t 75.000 | ETA 50s | step 0.10s | KE 2032.7442 | drift +0.12% | fluid 72.9910 | solid 1959.7532
  Impulse FP iterations last/mean/max 7/7.14/8
Step  1600/2000   80.0% | t 80.000 | ETA 40s | step 0.10s | KE 2032.4198 | drift +0.10% | fluid 92.4346 | solid 1939.9853
  Impulse FP iterations last/mean/max 7/7.14/8
Step  1700/2000   85.0% | t 85.000 | ETA 30s | step 0.09s | KE 2033.0157 | drift +0.13% | fluid 81.1580 | solid 1951.8577
  Impulse FP iterations last/mean/max 7/7.14/8
Step  1800/2000   90.0% | t 90.000 | ETA 20s | step 0.10s | KE 2032.6834 | drift +0.11% | fluid 67.8857 | solid 1964.7977
  Impulse FP iterations last/mean/max 7/7.14/8
Step  1900/2000   95.0% | t 95.000 | ETA 10s | step 0.09s | KE 2032.1934 | drift +0.09% | fluid 99.3636 | solid 1932.8298
  Impulse FP iterations last/mean/max 7/7.14/8
Solver finished successfully - good job!
Results saved successfully.

================== Run summary ==================
  Bodies:            2
  Triangles / nodes: 256 / 516
  Timesteps:         2000  (dt = 0.05)
  Simulated time:    0 -> 100
  First-step setup:  6.996 s
  Mean time/step:    0.1006 s  (excl. first step)
  Total wall time:   3m 28s
  Impulse FP iters last/mean/max: 8 / 7.144 / 8
  Approx impulse solves/step:     7.145
  Impulse start cache hits/direct: 1999 / 1
  Impulse global drift P/H:       2.261838e-9 / 1.859647e-2
  Impulse per-body max drift P/H: 3.508022e-9 / 4.708821e-3
  CPU cores:         256 available, 8 Rayon worker thread(s)
  Started:           2026-06-24 01:17:40
  Finished:          2026-06-24 01:21:10
  Output file:       /work/e643/e643/shared/multi_ellip/studies/two_body_paper_sweeps/runs/ellipsoid_1_0p8_0p6/ellipsoid_1_0p8_0p6_rho10_E0p55_sep5_run03_impulse_noproj/multiple_body_complete.dat
================================================
