
================ Simulation setup ================
  Run label:         /work/e643/e643/shared/multi_ellip/studies/two_body_paper_sweeps/runs/spheroid_1_0p7_0p7/spheroid_1_0p7_0p7_rho0p1_E0p2_sep5_run05_impulse_noproj/
  Started:           2026-06-24 01:58:37
  Input file:        /work/e643/e643/shared/multi_ellip/studies/two_body_paper_sweeps/runs/spheroid_1_0p7_0p7/spheroid_1_0p7_0p7_rho0p1_E0p2_sep5_run05_impulse_noproj/input.txt
  Output file:       /work/e643/e643/shared/multi_ellip/studies/two_body_paper_sweeps/runs/spheroid_1_0p7_0p7/spheroid_1_0p7_0p7_rho0p1_E0p2_sep5_run05_impulse_noproj/multiple_body_complete.dat
  Bodies:            2
  Fluid density:     1
  Mesh:              ndiv 2 -> 256 triangles / 516 nodes
  Simulated time:    0 -> 100  (dt = 0.05, ~2000 steps)
  Output cadence:    every 1 step(s)
  Output rows:       ~2001
  Progress cadence:  every 100 step(s)
  CPU cores:         256 available, 8 Rayon worker thread(s)
  Strong coupling:   disabled
  Impulse scheme:    enabled
  Hamiltonian step:  disabled
  Hamiltonian midpt: disabled
  Variational step:  disabled
  Energy projection: disabled
  Projection particular metric: Euclidean
  Fluid KE gradient: disabled  (eps = 0.001, scale = 1, linear = 1, angular = 1)
  Fluid KE discrete gradient: disabled
  Impulse pair metric correction: disabled  (mode = pair discrete-gradient, cutoff = all pairs, inner/outer = 0/0, eps = 0.001, linear scale = 1, angular scale = 0)
  Impulse metric correction: disabled  (internal load constraint = disabled)
  Impulse variational defect probe: disabled
  Impulse quadratic pressure: disabled  (scale = 1)
  Added-mass stab:   disabled
  Exact BEM geometry: disabled
  Exact singular BEM: disabled
  Legacy singular SLP diagnostic: disabled
  Phi-dot blend:     0 (off)

  Solver guidance:
    - Strong coupling: use for stiff close-coupled runs; slower but more implicit.
    - Impulse scheme: use when impulse/momentum conservation or KE drift is the focus. Recommended.
    - Added-mass stab: use for higher mesh counts (ndiv > 3) to preserve stability - deprecated.
================================================
Solver starting - good luck!

Initial state:
  Body  1
    density:          0.100000
    shape axes ratio: (1.000000, 0.700000, 0.700000)
    initial KE ratio: 0.200000
    position:         (-2.500000, 0.000000, 0.000000)
    velocity:         (6.095011, 3.526624, -6.651477)
    angular velocity: (0.995507, -1.719000, -5.960908)
    orientation:      (w=-0.129013, i=-0.052671, j=0.240754, k=-0.960531)
  Body  2
    density:          0.100000
    shape axes ratio: (1.000000, 0.700000, 0.700000)
    initial KE ratio: 0.200000
    position:         (2.500000, 0.000000, 0.000000)
    velocity:         (5.012368, 2.900198, -5.469990)
    angular velocity: (-6.164891, 1.008770, -0.674479)
    orientation:      (w=0.032374, i=0.215536, j=0.691315, k=-0.688898)

Preparing first step: implicit scheme, no bootstrap passes required.
First step may take longer than later steps.

First step completed in 0.332 s.

Step   100/2000    5.0% | t 5.000 | ETA 7m 32s | step 0.26s | KE 257.4127 | drift +9.91% | fluid 193.4044 | solid 64.0083
  Impulse FP iterations last/mean/max 18/17.43/19
Step   200/2000   10.0% | t 10.000 | ETA 7m 5s | step 0.23s | KE 258.2533 | drift +10.27% | fluid 194.6994 | solid 63.5539
  Impulse FP iterations last/mean/max 17/17.39/19
Step   300/2000   15.0% | t 15.000 | ETA 6m 41s | step 0.23s | KE 258.0456 | drift +10.18% | fluid 197.8704 | solid 60.1753
  Impulse FP iterations last/mean/max 17/17.41/19
Step   400/2000   20.0% | t 20.000 | ETA 6m 16s | step 0.26s | KE 259.1195 | drift +10.64% | fluid 194.7926 | solid 64.3269
  Impulse FP iterations last/mean/max 19/17.45/19
Step   500/2000   25.0% | t 25.000 | ETA 5m 52s | step 0.22s | KE 257.1562 | drift +9.80% | fluid 193.2915 | solid 63.8647
  Impulse FP iterations last/mean/max 16/17.44/19
Step   600/2000   30.0% | t 30.000 | ETA 5m 27s | step 0.21s | KE 257.8419 | drift +10.09% | fluid 196.9386 | solid 60.9033
  Impulse FP iterations last/mean/max 17/17.43/20
Step   700/2000   35.0% | t 35.000 | ETA 5m 2s | step 0.19s | KE 260.5127 | drift +11.23% | fluid 196.7191 | solid 63.7936
  Impulse FP iterations last/mean/max 15/17.38/20
Step   800/2000   40.0% | t 40.000 | ETA 4m 39s | step 0.23s | KE 257.7366 | drift +10.05% | fluid 194.4701 | solid 63.2665
  Impulse FP iterations last/mean/max 17/17.36/20
Step   900/2000   45.0% | t 45.000 | ETA 4m 15s | step 0.24s | KE 257.2003 | drift +9.82% | fluid 195.1966 | solid 62.0038
  Impulse FP iterations last/mean/max 17/17.34/20
Step  1000/2000   50.0% | t 50.000 | ETA 3m 52s | step 0.20s | KE 261.0350 | drift +11.46% | fluid 196.6565 | solid 64.3785
  Impulse FP iterations last/mean/max 16/17.32/20
Step  1100/2000   55.0% | t 55.000 | ETA 3m 29s | step 0.23s | KE 257.4676 | drift +9.93% | fluid 196.4410 | solid 61.0266
  Impulse FP iterations last/mean/max 17/17.33/20
Step  1200/2000   60.0% | t 60.000 | ETA 3m 6s | step 0.26s | KE 257.0335 | drift +9.75% | fluid 193.3480 | solid 63.6855
  Impulse FP iterations last/mean/max 18/17.34/20
Step  1300/2000   65.0% | t 65.000 | ETA 2m 42s | step 0.20s | KE 259.9003 | drift +10.97% | fluid 195.3214 | solid 64.5789
  Impulse FP iterations last/mean/max 17/17.34/20
Step  1400/2000   70.0% | t 70.000 | ETA 2m 19s | step 0.20s | KE 257.5385 | drift +9.96% | fluid 198.0586 | solid 59.4800
  Impulse FP iterations last/mean/max 15/17.33/20
Step  1500/2000   75.0% | t 75.000 | ETA 1m 55s | step 0.21s | KE 258.8750 | drift +10.53% | fluid 194.1113 | solid 64.7637
  Impulse FP iterations last/mean/max 18/17.34/20
Step  1600/2000   80.0% | t 80.000 | ETA 1m 32s | step 0.22s | KE 257.7928 | drift +10.07% | fluid 193.9070 | solid 63.8858
  Impulse FP iterations last/mean/max 17/17.33/20
Step  1700/2000   85.0% | t 85.000 | ETA 1m 9s | step 0.23s | KE 257.8914 | drift +10.11% | fluid 197.5612 | solid 60.3303
  Impulse FP iterations last/mean/max 19/17.33/20
Step  1800/2000   90.0% | t 90.000 | ETA 46s | step 0.18s | KE 259.9503 | drift +10.99% | fluid 195.7790 | solid 64.1714
  Impulse FP iterations last/mean/max 17/17.34/20
Step  1900/2000   95.0% | t 95.000 | ETA 22s | step 0.16s | KE 256.9784 | drift +9.72% | fluid 193.5698 | solid 63.4086
  Impulse FP iterations last/mean/max 17/17.34/20
Solver finished successfully - good job!
Results saved successfully.

================== Run summary ==================
  Bodies:            2
  Triangles / nodes: 256 / 516
  Timesteps:         2000  (dt = 0.05)
  Simulated time:    0 -> 100
  First-step setup:  0.332 s
  Mean time/step:    0.2243 s  (excl. first step)
  Total wall time:   7m 28s
  Impulse FP iters last/mean/max: 18 / 17.349 / 20
  Approx impulse solves/step:     17.349
  Impulse start cache hits/direct: 1999 / 1
  Impulse global drift P/H:       1.553684e-8 / 5.266356e-2
  Impulse per-body max drift P/H: 5.380628e-8 / 8.319072e-3
  CPU cores:         256 available, 8 Rayon worker thread(s)
  Started:           2026-06-24 01:58:37
  Finished:          2026-06-24 02:06:06
  Output file:       /work/e643/e643/shared/multi_ellip/studies/two_body_paper_sweeps/runs/spheroid_1_0p7_0p7/spheroid_1_0p7_0p7_rho0p1_E0p2_sep5_run05_impulse_noproj/multiple_body_complete.dat
================================================
