
================ Simulation setup ================
  Run label:         /work/e643/e643/shared/multi_ellip/studies/two_body_paper_sweeps/runs/ellipsoid_1_0p8_0p6/ellipsoid_1_0p8_0p6_rho10_E0p2_sep5_run05_impulse_noproj/
  Started:           2026-06-24 01:17:40
  Input file:        /work/e643/e643/shared/multi_ellip/studies/two_body_paper_sweeps/runs/ellipsoid_1_0p8_0p6/ellipsoid_1_0p8_0p6_rho10_E0p2_sep5_run05_impulse_noproj/input.txt
  Output file:       /work/e643/e643/shared/multi_ellip/studies/two_body_paper_sweeps/runs/ellipsoid_1_0p8_0p6/ellipsoid_1_0p8_0p6_rho10_E0p2_sep5_run05_impulse_noproj/multiple_body_complete.dat
  Bodies:            2
  Fluid density:     1
  Mesh:              ndiv 2 -> 256 triangles / 516 nodes
  Simulated time:    0 -> 100  (dt = 0.05, ~2000 steps)
  Output cadence:    every 1 step(s)
  Output rows:       ~2001
  Progress cadence:  every 100 step(s)
  CPU cores:         256 available, 8 Rayon worker thread(s)
  Strong coupling:   disabled
  Impulse scheme:    enabled
  Hamiltonian step:  disabled
  Hamiltonian midpt: disabled
  Variational step:  disabled
  Energy projection: disabled
  Projection particular metric: Euclidean
  Fluid KE gradient: disabled  (eps = 0.001, scale = 1, linear = 1, angular = 1)
  Fluid KE discrete gradient: disabled
  Impulse pair metric correction: disabled  (mode = pair discrete-gradient, cutoff = all pairs, inner/outer = 0/0, eps = 0.001, linear scale = 1, angular scale = 0)
  Impulse metric correction: disabled  (internal load constraint = disabled)
  Impulse variational defect probe: disabled
  Impulse quadratic pressure: disabled  (scale = 1)
  Added-mass stab:   disabled
  Exact BEM geometry: disabled
  Exact singular BEM: disabled
  Legacy singular SLP diagnostic: disabled
  Phi-dot blend:     0 (off)

  Solver guidance:
    - Strong coupling: use for stiff close-coupled runs; slower but more implicit.
    - Impulse scheme: use when impulse/momentum conservation or KE drift is the focus. Recommended.
    - Added-mass stab: use for higher mesh counts (ndiv > 3) to preserve stability - deprecated.
================================================
Solver starting - good luck!

Initial state:
  Body  1
    density:          10.000000
    shape axes ratio: (1.000000, 0.800000, 0.600000)
    initial KE ratio: 0.200000
    position:         (-2.500000, 0.000000, 0.000000)
    velocity:         (-3.823662, 4.851471, -6.595341)
    angular velocity: (4.593218, -2.055734, -3.762277)
    orientation:      (w=-0.198925, i=0.691527, j=0.304727, k=-0.623988)
  Body  2
    density:          10.000000
    shape axes ratio: (1.000000, 0.800000, 0.600000)
    initial KE ratio: 0.200000
    position:         (2.500000, 0.000000, 0.000000)
    velocity:         (-3.678711, 4.667557, -6.345320)
    angular velocity: (4.778094, 3.682911, -1.756246)
    orientation:      (w=-0.084159, i=0.193309, j=-0.927239, k=-0.309479)

Preparing first step: implicit scheme, no bootstrap passes required.
First step may take longer than later steps.

First step completed in 7.462 s.

Step   100/2000    5.0% | t 5.000 | ETA 3m 15s | step 0.12s | KE 4194.2582 | drift -0.63% | fluid 243.8326 | solid 3950.4256
  Impulse FP iterations last/mean/max 8/7.20/8
Step   200/2000   10.0% | t 10.000 | ETA 3m 6s | step 0.10s | KE 4181.9835 | drift -0.92% | fluid 150.2200 | solid 4031.7635
  Impulse FP iterations last/mean/max 7/7.24/8
Step   300/2000   15.0% | t 15.000 | ETA 2m 54s | step 0.09s | KE 4172.8024 | drift -1.14% | fluid 208.3298 | solid 3964.4726
  Impulse FP iterations last/mean/max 7/7.20/8
Step   400/2000   20.0% | t 20.000 | ETA 2m 43s | step 0.10s | KE 4170.3156 | drift -1.19% | fluid 211.3912 | solid 3958.9245
  Impulse FP iterations last/mean/max 7/7.18/8
Step   500/2000   25.0% | t 25.000 | ETA 2m 33s | step 0.10s | KE 4169.2334 | drift -1.22% | fluid 203.4357 | solid 3965.7977
  Impulse FP iterations last/mean/max 7/7.18/8
Step   600/2000   30.0% | t 30.000 | ETA 2m 22s | step 0.11s | KE 4171.0423 | drift -1.18% | fluid 158.8515 | solid 4012.1908
  Impulse FP iterations last/mean/max 8/7.17/8
Step   700/2000   35.0% | t 35.000 | ETA 2m 12s | step 0.10s | KE 4172.2306 | drift -1.15% | fluid 162.2599 | solid 4009.9707
  Impulse FP iterations last/mean/max 7/7.16/8
Step   800/2000   40.0% | t 40.000 | ETA 2m 2s | step 0.11s | KE 4172.5310 | drift -1.14% | fluid 192.1902 | solid 3980.3408
  Impulse FP iterations last/mean/max 8/7.16/8
Step   900/2000   45.0% | t 45.000 | ETA 1m 51s | step 0.10s | KE 4173.9589 | drift -1.11% | fluid 153.9724 | solid 4019.9865
  Impulse FP iterations last/mean/max 7/7.16/8
Step  1000/2000   50.0% | t 50.000 | ETA 1m 41s | step 0.10s | KE 4173.3746 | drift -1.12% | fluid 189.7750 | solid 3983.5996
  Impulse FP iterations last/mean/max 7/7.15/8
Step  1100/2000   55.0% | t 55.000 | ETA 1m 31s | step 0.10s | KE 4173.9711 | drift -1.11% | fluid 187.3833 | solid 3986.5878
  Impulse FP iterations last/mean/max 7/7.15/8
Step  1200/2000   60.0% | t 60.000 | ETA 1m 21s | step 0.11s | KE 4171.8082 | drift -1.16% | fluid 221.8504 | solid 3949.9578
  Impulse FP iterations last/mean/max 8/7.15/8
Step  1300/2000   65.0% | t 65.000 | ETA 1m 11s | step 0.10s | KE 4172.8394 | drift -1.13% | fluid 173.9157 | solid 3998.9237
  Impulse FP iterations last/mean/max 8/7.16/8
Step  1400/2000   70.0% | t 70.000 | ETA 1m 1s | step 0.10s | KE 4172.5745 | drift -1.14% | fluid 185.3127 | solid 3987.2618
  Impulse FP iterations last/mean/max 7/7.17/8
Step  1500/2000   75.0% | t 75.000 | ETA 50s | step 0.12s | KE 4171.3957 | drift -1.17% | fluid 226.4792 | solid 3944.9165
  Impulse FP iterations last/mean/max 8/7.18/8
Step  1600/2000   80.0% | t 80.000 | ETA 40s | step 0.10s | KE 4171.1117 | drift -1.18% | fluid 202.1718 | solid 3968.9398
  Impulse FP iterations last/mean/max 7/7.18/8
Step  1700/2000   85.0% | t 85.000 | ETA 30s | step 0.10s | KE 4172.7181 | drift -1.14% | fluid 144.4165 | solid 4028.3015
  Impulse FP iterations last/mean/max 7/7.19/8
Step  1800/2000   90.0% | t 90.000 | ETA 20s | step 0.10s | KE 4172.9883 | drift -1.13% | fluid 147.7538 | solid 4025.2345
  Impulse FP iterations last/mean/max 7/7.19/8
Step  1900/2000   95.0% | t 95.000 | ETA 10s | step 0.09s | KE 4171.1734 | drift -1.17% | fluid 186.4243 | solid 3984.7491
  Impulse FP iterations last/mean/max 7/7.19/8
Solver finished successfully - good job!
Results saved successfully.

================== Run summary ==================
  Bodies:            2
  Triangles / nodes: 256 / 516
  Timesteps:         2000  (dt = 0.05)
  Simulated time:    0 -> 100
  First-step setup:  7.462 s
  Mean time/step:    0.1016 s  (excl. first step)
  Total wall time:   3m 30s
  Impulse FP iters last/mean/max: 7 / 7.191 / 8
  Approx impulse solves/step:     7.191
  Impulse start cache hits/direct: 1999 / 1
  Impulse global drift P/H:       1.499003e-9 / 1.870251e-2
  Impulse per-body max drift P/H: 3.229676e-9 / 3.795660e-3
  CPU cores:         256 available, 8 Rayon worker thread(s)
  Started:           2026-06-24 01:17:40
  Finished:          2026-06-24 01:21:12
  Output file:       /work/e643/e643/shared/multi_ellip/studies/two_body_paper_sweeps/runs/ellipsoid_1_0p8_0p6/ellipsoid_1_0p8_0p6_rho10_E0p2_sep5_run05_impulse_noproj/multiple_body_complete.dat
================================================
