
================ Simulation setup ================
  Run label:         /work/e643/e643/shared/multi_ellip/studies/two_body_paper_sweeps/runs/ellipsoid_1_0p8_0p6/ellipsoid_1_0p8_0p6_rho0p1_E11_sep3_run04_impulse_noproj/
  Started:           2026-06-24 02:14:40
  Input file:        /work/e643/e643/shared/multi_ellip/studies/two_body_paper_sweeps/runs/ellipsoid_1_0p8_0p6/ellipsoid_1_0p8_0p6_rho0p1_E11_sep3_run04_impulse_noproj/input.txt
  Output file:       /work/e643/e643/shared/multi_ellip/studies/two_body_paper_sweeps/runs/ellipsoid_1_0p8_0p6/ellipsoid_1_0p8_0p6_rho0p1_E11_sep3_run04_impulse_noproj/multiple_body_complete.dat
  Bodies:            2
  Fluid density:     1
  Mesh:              ndiv 2 -> 256 triangles / 516 nodes
  Simulated time:    0 -> 100  (dt = 0.05, ~2000 steps)
  Output cadence:    every 1 step(s)
  Output rows:       ~2001
  Progress cadence:  every 100 step(s)
  CPU cores:         256 available, 8 Rayon worker thread(s)
  Strong coupling:   disabled
  Impulse scheme:    enabled
  Hamiltonian step:  disabled
  Hamiltonian midpt: disabled
  Variational step:  disabled
  Energy projection: disabled
  Projection particular metric: Euclidean
  Fluid KE gradient: disabled  (eps = 0.001, scale = 1, linear = 1, angular = 1)
  Fluid KE discrete gradient: disabled
  Impulse pair metric correction: disabled  (mode = pair discrete-gradient, cutoff = all pairs, inner/outer = 0/0, eps = 0.001, linear scale = 1, angular scale = 0)
  Impulse metric correction: disabled  (internal load constraint = disabled)
  Impulse variational defect probe: disabled
  Impulse quadratic pressure: disabled  (scale = 1)
  Added-mass stab:   disabled
  Exact BEM geometry: disabled
  Exact singular BEM: disabled
  Legacy singular SLP diagnostic: disabled
  Phi-dot blend:     0 (off)

  Solver guidance:
    - Strong coupling: use for stiff close-coupled runs; slower but more implicit.
    - Impulse scheme: use when impulse/momentum conservation or KE drift is the focus. Recommended.
    - Added-mass stab: use for higher mesh counts (ndiv > 3) to preserve stability - deprecated.
================================================
Solver starting - good luck!

Initial state:
  Body  1
    density:          0.100000
    shape axes ratio: (1.000000, 0.800000, 0.600000)
    initial KE ratio: 11.000000
    position:         (-1.500000, 0.000000, 0.000000)
    velocity:         (-0.354052, -0.616504, 1.031679)
    angular velocity: (-1.923724, 5.808407, -1.428325)
    orientation:      (w=-0.334759, i=-0.511302, j=-0.645353, k=-0.458286)
  Body  2
    density:          0.100000
    shape axes ratio: (1.000000, 0.800000, 0.600000)
    initial KE ratio: 11.000000
    position:         (1.500000, 0.000000, 0.000000)
    velocity:         (-0.316440, -0.551011, 0.922082)
    angular velocity: (-5.634271, 2.768765, 0.259515)
    orientation:      (w=0.497315, i=-0.106742, j=-0.791741, k=0.338274)

Preparing first step: implicit scheme, no bootstrap passes required.
First step may take longer than later steps.

First step completed in 0.463 s.

Step   100/2000    5.0% | t 5.000 | ETA 8m 47s | step 0.28s | KE 13.0017 | drift -13.86% | fluid 8.0035 | solid 4.9982
  Impulse FP iterations last/mean/max 19/19.10/22
Step   200/2000   10.0% | t 10.000 | ETA 8m 14s | step 0.27s | KE 13.3771 | drift -11.37% | fluid 7.6006 | solid 5.7765
  Impulse FP iterations last/mean/max 19/19.01/22
Step   300/2000   15.0% | t 15.000 | ETA 7m 44s | step 0.27s | KE 13.5707 | drift -10.09% | fluid 6.3853 | solid 7.1854
  Impulse FP iterations last/mean/max 19/18.97/22
Step   400/2000   20.0% | t 20.000 | ETA 7m 15s | step 0.25s | KE 13.7353 | drift -9.00% | fluid 8.2426 | solid 5.4927
  Impulse FP iterations last/mean/max 18/18.93/22
Step   500/2000   25.0% | t 25.000 | ETA 6m 48s | step 0.29s | KE 13.8157 | drift -8.46% | fluid 7.3378 | solid 6.4779
  Impulse FP iterations last/mean/max 20/18.94/22
Step   600/2000   30.0% | t 30.000 | ETA 6m 21s | step 0.30s | KE 13.8413 | drift -8.29% | fluid 7.5372 | solid 6.3041
  Impulse FP iterations last/mean/max 20/18.94/22
Step   700/2000   35.0% | t 35.000 | ETA 5m 52s | step 0.27s | KE 13.8591 | drift -8.18% | fluid 8.5460 | solid 5.3131
  Impulse FP iterations last/mean/max 18/18.90/22
Step   800/2000   40.0% | t 40.000 | ETA 5m 24s | step 0.25s | KE 13.8481 | drift -8.25% | fluid 7.4880 | solid 6.3601
  Impulse FP iterations last/mean/max 19/18.86/22
Step   900/2000   45.0% | t 45.000 | ETA 4m 57s | step 0.27s | KE 13.8879 | drift -7.98% | fluid 8.8865 | solid 5.0014
  Impulse FP iterations last/mean/max 18/18.82/22
Step  1000/2000   50.0% | t 50.000 | ETA 4m 30s | step 0.26s | KE 13.8902 | drift -7.97% | fluid 7.6376 | solid 6.2525
  Impulse FP iterations last/mean/max 17/18.83/22
Step  1100/2000   55.0% | t 55.000 | ETA 4m 3s | step 0.26s | KE 13.8784 | drift -8.05% | fluid 8.3418 | solid 5.5366
  Impulse FP iterations last/mean/max 19/18.81/22
Step  1200/2000   60.0% | t 60.000 | ETA 3m 35s | step 0.24s | KE 13.8618 | drift -8.16% | fluid 6.9801 | solid 6.8818
  Impulse FP iterations last/mean/max 17/18.80/22
Step  1300/2000   65.0% | t 65.000 | ETA 3m 8s | step 0.26s | KE 13.8700 | drift -8.10% | fluid 8.4209 | solid 5.4492
  Impulse FP iterations last/mean/max 19/18.81/22
Step  1400/2000   70.0% | t 70.000 | ETA 2m 41s | step 0.28s | KE 13.9066 | drift -7.86% | fluid 7.9349 | solid 5.9717
  Impulse FP iterations last/mean/max 18/18.78/22
Step  1500/2000   75.0% | t 75.000 | ETA 2m 14s | step 0.27s | KE 13.8897 | drift -7.97% | fluid 8.4358 | solid 5.4539
  Impulse FP iterations last/mean/max 20/18.78/22
Step  1600/2000   80.0% | t 80.000 | ETA 1m 47s | step 0.24s | KE 13.8690 | drift -8.11% | fluid 7.8308 | solid 6.0383
  Impulse FP iterations last/mean/max 17/18.78/22
Step  1700/2000   85.0% | t 85.000 | ETA 1m 20s | step 0.28s | KE 13.8701 | drift -8.10% | fluid 7.9877 | solid 5.8824
  Impulse FP iterations last/mean/max 20/18.77/22
Step  1800/2000   90.0% | t 90.000 | ETA 53s | step 0.26s | KE 13.8831 | drift -8.02% | fluid 8.3660 | solid 5.5171
  Impulse FP iterations last/mean/max 18/18.76/22
Step  1900/2000   95.0% | t 95.000 | ETA 26s | step 0.26s | KE 13.8793 | drift -8.04% | fluid 7.4106 | solid 6.4687
  Impulse FP iterations last/mean/max 17/18.75/22
Solver finished successfully - good job!
Results saved successfully.

================== Run summary ==================
  Bodies:            2
  Triangles / nodes: 256 / 516
  Timesteps:         2000  (dt = 0.05)
  Simulated time:    0 -> 100
  First-step setup:  0.463 s
  Mean time/step:    0.2680 s  (excl. first step)
  Total wall time:   8m 56s
  Impulse FP iters last/mean/max: 19 / 18.753 / 22
  Approx impulse solves/step:     18.754
  Impulse start cache hits/direct: 1999 / 1
  Impulse global drift P/H:       3.501071e-8 / 5.505822e-3
  Impulse per-body max drift P/H: 6.489539e-8 / 3.402694e-3
  CPU cores:         256 available, 8 Rayon worker thread(s)
  Started:           2026-06-24 02:14:40
  Finished:          2026-06-24 02:23:36
  Output file:       /work/e643/e643/shared/multi_ellip/studies/two_body_paper_sweeps/runs/ellipsoid_1_0p8_0p6/ellipsoid_1_0p8_0p6_rho0p1_E11_sep3_run04_impulse_noproj/multiple_body_complete.dat
================================================
