
================ Simulation setup ================
  Run label:         /work/e643/e643/shared/multi_ellip/studies/two_body_paper_sweeps/runs/ellipsoid_1_0p8_0p6/ellipsoid_1_0p8_0p6_rho0p3_E1p5_sep5_run02_impulse_noproj/
  Started:           2026-06-22 19:47:19
  Input file:        /work/e643/e643/shared/multi_ellip/studies/two_body_paper_sweeps/runs/ellipsoid_1_0p8_0p6/ellipsoid_1_0p8_0p6_rho0p3_E1p5_sep5_run02_impulse_noproj/input.txt
  Output file:       /work/e643/e643/shared/multi_ellip/studies/two_body_paper_sweeps/runs/ellipsoid_1_0p8_0p6/ellipsoid_1_0p8_0p6_rho0p3_E1p5_sep5_run02_impulse_noproj/multiple_body_complete.dat
  Bodies:            2
  Fluid density:     1
  Mesh:              ndiv 2 -> 256 triangles / 516 nodes
  Simulated time:    0 -> 100  (dt = 0.05, ~2000 steps)
  Output cadence:    every 1 step(s)
  Output rows:       ~2001
  Progress cadence:  every 100 step(s)
  CPU cores:         256 available, 8 Rayon worker thread(s)
  Strong coupling:   disabled
  Impulse scheme:    enabled
  Hamiltonian step:  disabled
  Hamiltonian midpt: disabled
  Variational step:  disabled
  Energy projection: disabled
  Projection particular metric: Euclidean
  Fluid KE gradient: disabled  (eps = 0.001, scale = 1, linear = 1, angular = 1)
  Fluid KE discrete gradient: disabled
  Impulse pair metric correction: disabled  (mode = pair discrete-gradient, cutoff = all pairs, inner/outer = 0/0, eps = 0.001, linear scale = 1, angular scale = 0)
  Impulse metric correction: disabled  (internal load constraint = disabled)
  Impulse variational defect probe: disabled
  Impulse quadratic pressure: disabled  (scale = 1)
  Added-mass stab:   disabled
  Exact BEM geometry: disabled
  Exact singular BEM: disabled
  Legacy singular SLP diagnostic: disabled
  Phi-dot blend:     0 (off)

  Solver guidance:
    - Strong coupling: use for stiff close-coupled runs; slower but more implicit.
    - Impulse scheme: use when impulse/momentum conservation or KE drift is the focus. Recommended.
    - Added-mass stab: use for higher mesh counts (ndiv > 3) to preserve stability - deprecated.
================================================
Solver starting - good luck!

Initial state:
  Body  1
    density:          0.300000
    shape axes ratio: (1.000000, 0.800000, 0.600000)
    initial KE ratio: 1.500000
    position:         (-2.500000, 0.000000, 0.000000)
    velocity:         (-0.627051, -1.312201, 3.180022)
    angular velocity: (3.646443, 0.223955, 5.111919)
    orientation:      (w=0.577350, i=0.577350, j=0.577350, k=0.000000)
  Body  2
    density:          0.300000
    shape axes ratio: (1.000000, 0.800000, 0.600000)
    initial KE ratio: 1.500000
    position:         (2.500000, 0.000000, 0.000000)
    velocity:         (-0.577173, -1.207824, 2.927072)
    angular velocity: (-5.161909, 0.459473, 3.552745)
    orientation:      (w=0.577350, i=-0.577350, j=0.000000, k=0.577350)

Preparing first step: implicit scheme, no bootstrap passes required.
First step may take longer than later steps.

First step completed in 0.263 s.

Step   100/2000    5.0% | t 5.000 | ETA 4m 22s | step 0.17s | KE 61.3467 | drift -1.63% | fluid 24.6874 | solid 36.6594
  Impulse FP iterations last/mean/max 15/14.92/16
Step   200/2000   10.0% | t 10.000 | ETA 4m 40s | step 0.16s | KE 65.1845 | drift +4.53% | fluid 26.7380 | solid 38.4465
  Impulse FP iterations last/mean/max 14/14.76/16
Step   300/2000   15.0% | t 15.000 | ETA 4m 43s | step 0.20s | KE 70.9794 | drift +13.82% | fluid 28.0077 | solid 42.9716
  Impulse FP iterations last/mean/max 15/14.65/16
Step   400/2000   20.0% | t 20.000 | ETA 4m 39s | step 0.18s | KE 74.6255 | drift +19.67% | fluid 26.1565 | solid 48.4689
  Impulse FP iterations last/mean/max 14/14.61/16
Step   500/2000   25.0% | t 25.000 | ETA 4m 28s | step 0.20s | KE 75.6555 | drift +21.32% | fluid 28.0255 | solid 47.6300
  Impulse FP iterations last/mean/max 14/14.56/16
Step   600/2000   30.0% | t 30.000 | ETA 4m 14s | step 0.20s | KE 76.9702 | drift +23.43% | fluid 23.7110 | solid 53.2592
  Impulse FP iterations last/mean/max 15/14.51/16
Step   700/2000   35.0% | t 35.000 | ETA 3m 59s | step 0.21s | KE 77.3211 | drift +23.99% | fluid 30.8985 | solid 46.4226
  Impulse FP iterations last/mean/max 15/14.48/16
Step   800/2000   40.0% | t 40.000 | ETA 3m 42s | step 0.19s | KE 77.9972 | drift +25.08% | fluid 26.3950 | solid 51.6022
  Impulse FP iterations last/mean/max 14/14.45/16
Step   900/2000   45.0% | t 45.000 | ETA 3m 25s | step 0.20s | KE 78.5527 | drift +25.97% | fluid 28.2351 | solid 50.3176
  Impulse FP iterations last/mean/max 14/14.43/16
Step  1000/2000   50.0% | t 50.000 | ETA 3m 7s | step 0.21s | KE 78.6251 | drift +26.08% | fluid 26.8612 | solid 51.7640
  Impulse FP iterations last/mean/max 15/14.41/16
Step  1100/2000   55.0% | t 55.000 | ETA 2m 49s | step 0.18s | KE 78.5631 | drift +25.98% | fluid 23.8032 | solid 54.7599
  Impulse FP iterations last/mean/max 14/14.39/16
Step  1200/2000   60.0% | t 60.000 | ETA 2m 31s | step 0.21s | KE 78.8020 | drift +26.37% | fluid 30.0211 | solid 48.7810
  Impulse FP iterations last/mean/max 15/14.37/16
Step  1300/2000   65.0% | t 65.000 | ETA 2m 12s | step 0.18s | KE 78.9080 | drift +26.54% | fluid 25.5751 | solid 53.3328
  Impulse FP iterations last/mean/max 14/14.36/16
Step  1400/2000   70.0% | t 70.000 | ETA 1m 54s | step 0.19s | KE 78.8039 | drift +26.37% | fluid 25.1355 | solid 53.6684
  Impulse FP iterations last/mean/max 14/14.35/16
Step  1500/2000   75.0% | t 75.000 | ETA 1m 35s | step 0.21s | KE 79.0235 | drift +26.72% | fluid 28.0321 | solid 50.9914
  Impulse FP iterations last/mean/max 15/14.35/16
Step  1600/2000   80.0% | t 80.000 | ETA 1m 16s | step 0.20s | KE 78.8974 | drift +26.52% | fluid 24.6184 | solid 54.2790
  Impulse FP iterations last/mean/max 14/14.33/16
Step  1700/2000   85.0% | t 85.000 | ETA 57s | step 0.19s | KE 78.7414 | drift +26.27% | fluid 25.1662 | solid 53.5752
  Impulse FP iterations last/mean/max 14/14.33/16
Step  1800/2000   90.0% | t 90.000 | ETA 38s | step 0.19s | KE 78.9733 | drift +26.64% | fluid 29.7056 | solid 49.2676
  Impulse FP iterations last/mean/max 14/14.33/16
Step  1900/2000   95.0% | t 95.000 | ETA 19s | step 0.20s | KE 78.8589 | drift +26.46% | fluid 22.9840 | solid 55.8750
  Impulse FP iterations last/mean/max 14/14.33/16
Solver finished successfully - good job!
Results saved successfully.

================== Run summary ==================
  Bodies:            2
  Triangles / nodes: 256 / 516
  Timesteps:         2000  (dt = 0.05)
  Simulated time:    0 -> 100
  First-step setup:  0.263 s
  Mean time/step:    0.1918 s  (excl. first step)
  Total wall time:   6m 23s
  Impulse FP iters last/mean/max: 15 / 14.333 / 16
  Approx impulse solves/step:     14.334
  Impulse start cache hits/direct: 1999 / 1
  Impulse global drift P/H:       2.336105e-8 / 1.471080e-1
  Impulse per-body max drift P/H: 3.482131e-8 / 4.890270e-2
  CPU cores:         256 available, 8 Rayon worker thread(s)
  Started:           2026-06-22 19:47:19
  Finished:          2026-06-22 19:53:46
  Output file:       /work/e643/e643/shared/multi_ellip/studies/two_body_paper_sweeps/runs/ellipsoid_1_0p8_0p6/ellipsoid_1_0p8_0p6_rho0p3_E1p5_sep5_run02_impulse_noproj/multiple_body_complete.dat
================================================
