
================ Simulation setup ================
  Run label:         /work/e643/e643/shared/multi_ellip/studies/departing_sphericity_sweep/runs/spheroid_oblate/homogeneous/spheroid_oblate_homogeneous_eps0p0001_rho1_E0p5_sep8_run07_impulse_noproj/
  Started:           2026-06-24 02:23:12
  Input file:        /work/e643/e643/shared/multi_ellip/studies/departing_sphericity_sweep/runs/spheroid_oblate/homogeneous/spheroid_oblate_homogeneous_eps0p0001_rho1_E0p5_sep8_run07_impulse_noproj/input.txt
  Output file:       /work/e643/e643/shared/multi_ellip/studies/departing_sphericity_sweep/runs/spheroid_oblate/homogeneous/spheroid_oblate_homogeneous_eps0p0001_rho1_E0p5_sep8_run07_impulse_noproj/multiple_body_complete.dat
  Bodies:            2
  Fluid density:     1
  Mesh:              ndiv 2 -> 256 triangles / 516 nodes
  Simulated time:    0 -> 100  (dt = 0.05, ~2000 steps)
  Output cadence:    every 1 step(s)
  Output rows:       ~2001
  Progress cadence:  every 100 step(s)
  CPU cores:         256 available, 8 Rayon worker thread(s)
  Strong coupling:   disabled
  Impulse scheme:    enabled
  Hamiltonian step:  disabled
  Hamiltonian midpt: disabled
  Variational step:  disabled
  Energy projection: disabled
  Projection particular metric: Euclidean
  Fluid KE gradient: disabled  (eps = 0.001, scale = 1, linear = 1, angular = 1)
  Fluid KE discrete gradient: disabled
  Impulse pair metric correction: disabled  (mode = pair discrete-gradient, cutoff = all pairs, inner/outer = 0/0, eps = 0.001, linear scale = 1, angular scale = 0)
  Impulse metric correction: disabled  (internal load constraint = disabled)
  Impulse variational defect probe: disabled
  Impulse quadratic pressure: disabled  (scale = 1)
  Added-mass stab:   disabled
  Exact BEM geometry: disabled
  Exact singular BEM: disabled
  Legacy singular SLP diagnostic: disabled
  Phi-dot blend:     0 (off)

  Solver guidance:
    - Strong coupling: use for stiff close-coupled runs; slower but more implicit.
    - Impulse scheme: use when impulse/momentum conservation or KE drift is the focus. Recommended.
    - Added-mass stab: use for higher mesh counts (ndiv > 3) to preserve stability - deprecated.
================================================
Solver starting - good luck!

Initial state:
  Body  1
    density:          1.000000
    shape axes ratio: (1.000000, 1.000000, 0.999700)
    initial KE ratio: 0.500000
    position:         (-4.000000, 0.000000, 0.000000)
    velocity:         (3.927990, -1.879011, -3.552788)
    angular velocity: (2.440548, -4.801252, 3.235756)
    orientation:      (w=-0.537647, i=0.342242, j=0.616470, k=0.462353)
  Body  2
    density:          1.000000
    shape axes ratio: (1.000000, 1.000000, 0.999700)
    initial KE ratio: 0.500000
    position:         (4.000000, 0.000000, 0.000000)
    velocity:         (3.927898, -1.878967, -3.552705)
    angular velocity: (-4.802342, 3.479065, 2.076544)
    orientation:      (w=0.039160, i=0.753078, j=-0.654370, k=0.056033)

Preparing first step: implicit scheme, no bootstrap passes required.
First step may take longer than later steps.

First step completed in 4.771 s.

Step   100/2000    5.0% | t 5.000 | ETA 2m 31s | step 0.08s | KE 278.3701 | drift +2.82% | fluid 72.2875 | solid 206.0826
  Impulse FP iterations last/mean/max 6/5.99/6
Step   200/2000   10.0% | t 10.000 | ETA 2m 24s | step 0.08s | KE 289.2514 | drift +6.84% | fluid 72.2857 | solid 216.9658
  Impulse FP iterations last/mean/max 6/5.98/6
Step   300/2000   15.0% | t 15.000 | ETA 2m 16s | step 0.08s | KE 303.3765 | drift +12.06% | fluid 72.2874 | solid 231.0892
  Impulse FP iterations last/mean/max 6/5.98/6
Step   400/2000   20.0% | t 20.000 | ETA 2m 8s | step 0.08s | KE 320.7511 | drift +18.48% | fluid 72.2878 | solid 248.4632
  Impulse FP iterations last/mean/max 6/6.00/7
Step   500/2000   25.0% | t 25.000 | ETA 2m 0s | step 0.08s | KE 341.3805 | drift +26.10% | fluid 72.2897 | solid 269.0907
  Impulse FP iterations last/mean/max 6/6.02/7
Step   600/2000   30.0% | t 30.000 | ETA 1m 53s | step 0.08s | KE 365.2717 | drift +34.92% | fluid 72.2851 | solid 292.9866
  Impulse FP iterations last/mean/max 6/6.05/7
Step   700/2000   35.0% | t 35.000 | ETA 1m 45s | step 0.08s | KE 392.4287 | drift +44.95% | fluid 72.2888 | solid 320.1399
  Impulse FP iterations last/mean/max 6/6.09/7
Step   800/2000   40.0% | t 40.000 | ETA 1m 38s | step 0.08s | KE 422.8606 | drift +56.19% | fluid 72.2857 | solid 350.5749
  Impulse FP iterations last/mean/max 6/6.13/7
Step   900/2000   45.0% | t 45.000 | ETA 1m 30s | step 0.10s | KE 456.5740 | drift +68.65% | fluid 72.2853 | solid 384.2888
  Impulse FP iterations last/mean/max 7/6.19/7
Step  1000/2000   50.0% | t 50.000 | ETA 1m 23s | step 0.08s | KE 493.5751 | drift +82.32% | fluid 72.2858 | solid 421.2893
  Impulse FP iterations last/mean/max 6/6.24/7
Step  1100/2000   55.0% | t 55.000 | ETA 1m 15s | step 0.09s | KE 533.8734 | drift +97.20% | fluid 72.2865 | solid 461.5869
  Impulse FP iterations last/mean/max 7/6.29/7
Step  1200/2000   60.0% | t 60.000 | ETA 1m 7s | step 0.09s | KE 577.4753 | drift +113.31% | fluid 72.2875 | solid 505.1878
  Impulse FP iterations last/mean/max 7/6.33/7
Step  1300/2000   65.0% | t 65.000 | ETA 59s | step 0.09s | KE 624.3912 | drift +130.64% | fluid 72.2882 | solid 552.1030
  Impulse FP iterations last/mean/max 7/6.38/7
Step  1400/2000   70.0% | t 70.000 | ETA 51s | step 0.09s | KE 674.6246 | drift +149.19% | fluid 72.2918 | solid 602.3328
  Impulse FP iterations last/mean/max 7/6.42/7
Step  1500/2000   75.0% | t 75.000 | ETA 42s | step 0.09s | KE 728.1919 | drift +168.98% | fluid 72.2861 | solid 655.9059
  Impulse FP iterations last/mean/max 7/6.45/7
Step  1600/2000   80.0% | t 80.000 | ETA 34s | step 0.08s | KE 785.0923 | drift +189.99% | fluid 72.2882 | solid 712.8041
  Impulse FP iterations last/mean/max 7/6.48/7
Step  1700/2000   85.0% | t 85.000 | ETA 25s | step 0.07s | KE 845.3408 | drift +212.25% | fluid 72.2864 | solid 773.0544
  Impulse FP iterations last/mean/max 7/6.51/7
Step  1800/2000   90.0% | t 90.000 | ETA 17s | step 0.07s | KE 908.9422 | drift +235.74% | fluid 72.2860 | solid 836.6562
  Impulse FP iterations last/mean/max 7/6.54/7
Step  1900/2000   95.0% | t 95.000 | ETA 8s | step 0.07s | KE 975.9015 | drift +260.48% | fluid 72.2912 | solid 903.6103
  Impulse FP iterations last/mean/max 7/6.56/7
Solver finished successfully - good job!
Results saved successfully.

================== Run summary ==================
  Bodies:            2
  Triangles / nodes: 256 / 516
  Timesteps:         2000  (dt = 0.05)
  Simulated time:    0 -> 100
  First-step setup:  4.771 s
  Mean time/step:    0.0834 s  (excl. first step)
  Total wall time:   2m 51s
  Impulse FP iters last/mean/max: 7 / 6.585 / 7
  Approx impulse solves/step:     6.585
  Impulse start cache hits/direct: 1999 / 1
  Impulse global drift P/H:       4.973872e-9 / 5.722769e-2
  Impulse per-body max drift P/H: 1.006669e-8 / 5.621112e-3
  CPU cores:         256 available, 8 Rayon worker thread(s)
  Started:           2026-06-24 02:23:12
  Finished:          2026-06-24 02:26:04
  Output file:       /work/e643/e643/shared/multi_ellip/studies/departing_sphericity_sweep/runs/spheroid_oblate/homogeneous/spheroid_oblate_homogeneous_eps0p0001_rho1_E0p5_sep8_run07_impulse_noproj/multiple_body_complete.dat
================================================
