
================ Simulation setup ================
  Run label:         /work/e643/e643/shared/multi_ellip/studies/departing_sphericity_sweep/runs/triaxial/homogeneous/triaxial_homogeneous_eps0_rho1_E0p5_sep8_run04_impulse_noproj/
  Started:           2026-06-24 02:23:18
  Input file:        /work/e643/e643/shared/multi_ellip/studies/departing_sphericity_sweep/runs/triaxial/homogeneous/triaxial_homogeneous_eps0_rho1_E0p5_sep8_run04_impulse_noproj/input.txt
  Output file:       /work/e643/e643/shared/multi_ellip/studies/departing_sphericity_sweep/runs/triaxial/homogeneous/triaxial_homogeneous_eps0_rho1_E0p5_sep8_run04_impulse_noproj/multiple_body_complete.dat
  Bodies:            2
  Fluid density:     1
  Mesh:              ndiv 2 -> 256 triangles / 516 nodes
  Simulated time:    0 -> 100  (dt = 0.05, ~2000 steps)
  Output cadence:    every 1 step(s)
  Output rows:       ~2001
  Progress cadence:  every 100 step(s)
  CPU cores:         256 available, 8 Rayon worker thread(s)
  Strong coupling:   disabled
  Impulse scheme:    enabled
  Hamiltonian step:  disabled
  Hamiltonian midpt: disabled
  Variational step:  disabled
  Energy projection: disabled
  Projection particular metric: Euclidean
  Fluid KE gradient: disabled  (eps = 0.001, scale = 1, linear = 1, angular = 1)
  Fluid KE discrete gradient: disabled
  Impulse pair metric correction: disabled  (mode = pair discrete-gradient, cutoff = all pairs, inner/outer = 0/0, eps = 0.001, linear scale = 1, angular scale = 0)
  Impulse metric correction: disabled  (internal load constraint = disabled)
  Impulse variational defect probe: disabled
  Impulse quadratic pressure: disabled  (scale = 1)
  Added-mass stab:   disabled
  Exact BEM geometry: disabled
  Exact singular BEM: disabled
  Legacy singular SLP diagnostic: disabled
  Phi-dot blend:     0 (off)

  Solver guidance:
    - Strong coupling: use for stiff close-coupled runs; slower but more implicit.
    - Impulse scheme: use when impulse/momentum conservation or KE drift is the focus. Recommended.
    - Added-mass stab: use for higher mesh counts (ndiv > 3) to preserve stability - deprecated.
================================================
Solver starting - good luck!

Initial state:
  Body  1
    density:          1.000000
    shape axes ratio: (1.000000, 1.000000, 1.000000)
    initial KE ratio: 0.500000
    position:         (-4.000000, 0.000000, 0.000000)
    velocity:         (-4.357421, -1.920595, 2.984448)
    angular velocity: (-5.617973, 0.171781, -2.808432)
    orientation:      (w=0.711257, i=0.494743, j=-0.079984, k=0.492895)
  Body  2
    density:          1.000000
    shape axes ratio: (1.000000, 1.000000, 1.000000)
    initial KE ratio: 0.500000
    position:         (4.000000, 0.000000, 0.000000)
    velocity:         (-4.357421, -1.920595, 2.984448)
    angular velocity: (-0.298139, -0.251408, -6.271070)
    orientation:      (w=-0.082525, i=0.963079, j=-0.251012, k=-0.051599)

Preparing first step: implicit scheme, no bootstrap passes required.
First step may take longer than later steps.

First step completed in 0.259 s.

Step   100/2000    5.0% | t 5.000 | ETA 2m 39s | step 0.09s | KE 280.2470 | drift +3.54% | fluid 72.2160 | solid 208.0310
  Impulse FP iterations last/mean/max 6/6.00/6
Step   200/2000   10.0% | t 10.000 | ETA 2m 31s | step 0.08s | KE 292.9238 | drift +8.23% | fluid 72.2160 | solid 220.7078
  Impulse FP iterations last/mean/max 6/6.00/6
Step   300/2000   15.0% | t 15.000 | ETA 2m 22s | step 0.08s | KE 308.6867 | drift +14.05% | fluid 72.2160 | solid 236.4706
  Impulse FP iterations last/mean/max 6/6.00/6
Step   400/2000   20.0% | t 20.000 | ETA 2m 13s | step 0.09s | KE 327.5352 | drift +21.02% | fluid 72.2161 | solid 255.3191
  Impulse FP iterations last/mean/max 6/5.99/6
Step   500/2000   25.0% | t 25.000 | ETA 2m 4s | step 0.09s | KE 349.4699 | drift +29.12% | fluid 72.2161 | solid 277.2538
  Impulse FP iterations last/mean/max 6/5.95/6
Step   600/2000   30.0% | t 30.000 | ETA 1m 55s | step 0.08s | KE 374.4905 | drift +38.36% | fluid 72.2161 | solid 302.2744
  Impulse FP iterations last/mean/max 6/5.90/6
Step   700/2000   35.0% | t 35.000 | ETA 1m 45s | step 0.07s | KE 402.5968 | drift +48.75% | fluid 72.2161 | solid 330.3807
  Impulse FP iterations last/mean/max 5/5.85/6
Step   800/2000   40.0% | t 40.000 | ETA 1m 35s | step 0.07s | KE 433.7890 | drift +60.27% | fluid 72.2161 | solid 361.5728
  Impulse FP iterations last/mean/max 6/5.81/6
Step   900/2000   45.0% | t 45.000 | ETA 1m 26s | step 0.07s | KE 468.0667 | drift +72.94% | fluid 72.2161 | solid 395.8506
  Impulse FP iterations last/mean/max 6/5.78/6
Step  1000/2000   50.0% | t 50.000 | ETA 1m 17s | step 0.07s | KE 505.4300 | drift +86.74% | fluid 72.2162 | solid 433.2139
  Impulse FP iterations last/mean/max 5/5.75/6
Step  1100/2000   55.0% | t 55.000 | ETA 1m 9s | step 0.09s | KE 545.8790 | drift +101.69% | fluid 72.2162 | solid 473.6628
  Impulse FP iterations last/mean/max 6/5.72/6
Step  1200/2000   60.0% | t 60.000 | ETA 1m 1s | step 0.07s | KE 589.4130 | drift +117.77% | fluid 72.2162 | solid 517.1967
  Impulse FP iterations last/mean/max 5/5.70/6
Step  1300/2000   65.0% | t 65.000 | ETA 54s | step 0.08s | KE 636.0322 | drift +135.00% | fluid 72.2162 | solid 563.8160
  Impulse FP iterations last/mean/max 6/5.68/6
Step  1400/2000   70.0% | t 70.000 | ETA 46s | step 0.07s | KE 685.7363 | drift +153.36% | fluid 72.2162 | solid 613.5201
  Impulse FP iterations last/mean/max 5/5.66/6
Step  1500/2000   75.0% | t 75.000 | ETA 38s | step 0.08s | KE 738.5250 | drift +172.86% | fluid 72.2163 | solid 666.3087
  Impulse FP iterations last/mean/max 6/5.65/6
Step  1600/2000   80.0% | t 80.000 | ETA 30s | step 0.07s | KE 794.3981 | drift +193.51% | fluid 72.2163 | solid 722.1818
  Impulse FP iterations last/mean/max 5/5.64/6
Step  1700/2000   85.0% | t 85.000 | ETA 23s | step 0.07s | KE 853.3555 | drift +215.29% | fluid 72.2164 | solid 781.1391
  Impulse FP iterations last/mean/max 5/5.63/6
Step  1800/2000   90.0% | t 90.000 | ETA 15s | step 0.08s | KE 915.3968 | drift +238.21% | fluid 72.2164 | solid 843.1804
  Impulse FP iterations last/mean/max 6/5.62/6
Step  1900/2000   95.0% | t 95.000 | ETA 7s | step 0.08s | KE 980.5217 | drift +262.28% | fluid 72.2164 | solid 908.3053
  Impulse FP iterations last/mean/max 6/5.61/6
Solver finished successfully - good job!
Results saved successfully.

================== Run summary ==================
  Bodies:            2
  Triangles / nodes: 256 / 516
  Timesteps:         2000  (dt = 0.05)
  Simulated time:    0 -> 100
  First-step setup:  0.259 s
  Mean time/step:    0.0768 s  (excl. first step)
  Total wall time:   2m 33s
  Impulse FP iters last/mean/max: 6 / 5.612 / 6
  Approx impulse solves/step:     5.613
  Impulse start cache hits/direct: 1999 / 1
  Impulse global drift P/H:       8.783388e-10 / 7.506960e-2
  Impulse per-body max drift P/H: 2.496854e-9 / 8.775650e-3
  CPU cores:         256 available, 8 Rayon worker thread(s)
  Started:           2026-06-24 02:23:18
  Finished:          2026-06-24 02:25:53
  Output file:       /work/e643/e643/shared/multi_ellip/studies/departing_sphericity_sweep/runs/triaxial/homogeneous/triaxial_homogeneous_eps0_rho1_E0p5_sep8_run04_impulse_noproj/multiple_body_complete.dat
================================================
