
================ Simulation setup ================
  Run label:         /work/e643/e643/shared/multi_ellip/studies/departing_sphericity_sweep/runs/triaxial/heterogeneous_sphere/triaxial_heterogeneous_sphere_eps0p001_rho1_E0p5_sep8_run01_impulse_noproj/
  Started:           2026-06-24 02:43:20
  Input file:        /work/e643/e643/shared/multi_ellip/studies/departing_sphericity_sweep/runs/triaxial/heterogeneous_sphere/triaxial_heterogeneous_sphere_eps0p001_rho1_E0p5_sep8_run01_impulse_noproj/input.txt
  Output file:       /work/e643/e643/shared/multi_ellip/studies/departing_sphericity_sweep/runs/triaxial/heterogeneous_sphere/triaxial_heterogeneous_sphere_eps0p001_rho1_E0p5_sep8_run01_impulse_noproj/multiple_body_complete.dat
  Bodies:            2
  Fluid density:     1
  Mesh:              ndiv 2 -> 256 triangles / 516 nodes
  Simulated time:    0 -> 100  (dt = 0.05, ~2000 steps)
  Output cadence:    every 1 step(s)
  Output rows:       ~2001
  Progress cadence:  every 100 step(s)
  CPU cores:         256 available, 8 Rayon worker thread(s)
  Strong coupling:   disabled
  Impulse scheme:    enabled
  Hamiltonian step:  disabled
  Hamiltonian midpt: disabled
  Variational step:  disabled
  Energy projection: disabled
  Projection particular metric: Euclidean
  Fluid KE gradient: disabled  (eps = 0.001, scale = 1, linear = 1, angular = 1)
  Fluid KE discrete gradient: disabled
  Impulse pair metric correction: disabled  (mode = pair discrete-gradient, cutoff = all pairs, inner/outer = 0/0, eps = 0.001, linear scale = 1, angular scale = 0)
  Impulse metric correction: disabled  (internal load constraint = disabled)
  Impulse variational defect probe: disabled
  Impulse quadratic pressure: disabled  (scale = 1)
  Added-mass stab:   disabled
  Exact BEM geometry: disabled
  Exact singular BEM: disabled
  Legacy singular SLP diagnostic: disabled
  Phi-dot blend:     0 (off)

  Solver guidance:
    - Strong coupling: use for stiff close-coupled runs; slower but more implicit.
    - Impulse scheme: use when impulse/momentum conservation or KE drift is the focus. Recommended.
    - Added-mass stab: use for higher mesh counts (ndiv > 3) to preserve stability - deprecated.
================================================
Solver starting - good luck!

Initial state:
  Body  1
    density:          1.000000
    shape axes ratio: (1.000000, 0.999001, 0.998003)
    initial KE ratio: 0.500000
    position:         (-4.000000, 0.000000, 0.000000)
    velocity:         (-1.569888, -3.643259, -3.980825)
    angular velocity: (-2.918830, 4.455780, -3.332398)
    orientation:      (w=0.139888, i=0.005316, j=0.509815, k=0.848818)
  Body  2
    density:          1.000000
    shape axes ratio: (1.000000, 1.000000, 1.000000)
    initial KE ratio: 0.500000
    position:         (4.000000, 0.000000, 0.000000)
    velocity:         (-1.569835, -3.643137, -3.980691)
    angular velocity: (5.405255, 0.911810, 3.070868)
    orientation:      (w=-0.991797, i=0.083988, j=-0.037625, k=0.088706)

Preparing first step: implicit scheme, no bootstrap passes required.
First step may take longer than later steps.

First step completed in 0.223 s.

Step   100/2000    5.0% | t 5.000 | ETA 3m 7s | step 0.09s | KE 275.1953 | drift +1.53% | fluid 72.5993 | solid 202.5961
  Impulse FP iterations last/mean/max 7/7.25/8
Step   200/2000   10.0% | t 10.000 | ETA 2m 59s | step 0.11s | KE 280.3086 | drift +3.42% | fluid 72.5927 | solid 207.7159
  Impulse FP iterations last/mean/max 8/7.27/8
Step   300/2000   15.0% | t 15.000 | ETA 2m 51s | step 0.10s | KE 286.4071 | drift +5.67% | fluid 72.5961 | solid 213.8110
  Impulse FP iterations last/mean/max 7/7.28/8
Step   400/2000   20.0% | t 20.000 | ETA 2m 42s | step 0.11s | KE 293.5044 | drift +8.28% | fluid 72.6169 | solid 220.8875
  Impulse FP iterations last/mean/max 8/7.31/8
Step   500/2000   25.0% | t 25.000 | ETA 2m 32s | step 0.11s | KE 301.6294 | drift +11.28% | fluid 72.5941 | solid 229.0353
  Impulse FP iterations last/mean/max 8/7.32/8
Step   600/2000   30.0% | t 30.000 | ETA 2m 23s | step 0.12s | KE 310.7798 | drift +14.66% | fluid 72.6152 | solid 238.1646
  Impulse FP iterations last/mean/max 8/7.34/8
Step   700/2000   35.0% | t 35.000 | ETA 2m 13s | step 0.11s | KE 320.9867 | drift +18.42% | fluid 72.6176 | solid 248.3691
  Impulse FP iterations last/mean/max 8/7.36/8
Step   800/2000   40.0% | t 40.000 | ETA 2m 3s | step 0.11s | KE 332.2623 | drift +22.58% | fluid 72.6176 | solid 259.6447
  Impulse FP iterations last/mean/max 8/7.37/8
Step   900/2000   45.0% | t 45.000 | ETA 1m 53s | step 0.12s | KE 344.6247 | drift +27.14% | fluid 72.6120 | solid 272.0127
  Impulse FP iterations last/mean/max 8/7.37/8
Step  1000/2000   50.0% | t 50.000 | ETA 1m 43s | step 0.12s | KE 358.0948 | drift +32.11% | fluid 72.5937 | solid 285.5011
  Impulse FP iterations last/mean/max 8/7.38/8
Step  1100/2000   55.0% | t 55.000 | ETA 1m 33s | step 0.11s | KE 372.6687 | drift +37.49% | fluid 72.6140 | solid 300.0547
  Impulse FP iterations last/mean/max 8/7.38/8
Step  1200/2000   60.0% | t 60.000 | ETA 1m 22s | step 0.10s | KE 388.3950 | drift +43.29% | fluid 72.5941 | solid 315.8009
  Impulse FP iterations last/mean/max 7/7.38/8
Step  1300/2000   65.0% | t 65.000 | ETA 1m 12s | step 0.10s | KE 405.2589 | drift +49.51% | fluid 72.6066 | solid 332.6523
  Impulse FP iterations last/mean/max 7/7.38/8
Step  1400/2000   70.0% | t 70.000 | ETA 1m 2s | step 0.11s | KE 423.2950 | drift +56.17% | fluid 72.6140 | solid 350.6810
  Impulse FP iterations last/mean/max 8/7.38/8
Step  1500/2000   75.0% | t 75.000 | ETA 51s | step 0.11s | KE 442.5212 | drift +63.26% | fluid 72.6130 | solid 369.9081
  Impulse FP iterations last/mean/max 8/7.38/8
Step  1600/2000   80.0% | t 80.000 | ETA 41s | step 0.12s | KE 462.9507 | drift +70.80% | fluid 72.6114 | solid 390.3394
  Impulse FP iterations last/mean/max 8/7.38/8
Step  1700/2000   85.0% | t 85.000 | ETA 31s | step 0.10s | KE 484.6022 | drift +78.79% | fluid 72.6082 | solid 411.9940
  Impulse FP iterations last/mean/max 7/7.38/8
Step  1800/2000   90.0% | t 90.000 | ETA 20s | step 0.09s | KE 507.4954 | drift +87.23% | fluid 72.6011 | solid 434.8942
  Impulse FP iterations last/mean/max 7/7.39/8
Step  1900/2000   95.0% | t 95.000 | ETA 10s | step 0.09s | KE 531.6376 | drift +96.14% | fluid 72.6004 | solid 459.0372
  Impulse FP iterations last/mean/max 8/7.40/8
Solver finished successfully - good job!
Results saved successfully.

================== Run summary ==================
  Bodies:            2
  Triangles / nodes: 256 / 516
  Timesteps:         2000  (dt = 0.05)
  Simulated time:    0 -> 100
  First-step setup:  0.223 s
  Mean time/step:    0.1011 s  (excl. first step)
  Total wall time:   3m 22s
  Impulse FP iters last/mean/max: 7 / 7.402 / 8
  Approx impulse solves/step:     7.402
  Impulse start cache hits/direct: 1999 / 1
  Impulse global drift P/H:       4.210795e-8 / 3.011434e-2
  Impulse per-body max drift P/H: 6.664523e-8 / 1.930953e-3
  CPU cores:         256 available, 8 Rayon worker thread(s)
  Started:           2026-06-24 02:43:20
  Finished:          2026-06-24 02:46:43
  Output file:       /work/e643/e643/shared/multi_ellip/studies/departing_sphericity_sweep/runs/triaxial/heterogeneous_sphere/triaxial_heterogeneous_sphere_eps0p001_rho1_E0p5_sep8_run01_impulse_noproj/multiple_body_complete.dat
================================================
