
================ Simulation setup ================
  Run label:         /work/e643/e643/shared/multi_ellip/studies/multibody_convergence_sweep/runs/periodic_temporal_ellipsoid_1_0p8_0p6_rho4_E1_sep8_nd3_dt0p025/
  Started:           2026-06-22 19:37:46
  Input file:        /work/e643/e643/shared/multi_ellip/studies/multibody_convergence_sweep/runs/periodic_temporal_ellipsoid_1_0p8_0p6_rho4_E1_sep8_nd3_dt0p025/input.txt
  Output file:       /work/e643/e643/shared/multi_ellip/studies/multibody_convergence_sweep/runs/periodic_temporal_ellipsoid_1_0p8_0p6_rho4_E1_sep8_nd3_dt0p025/multiple_body_complete.dat
  Bodies:            2
  Fluid density:     1
  Mesh:              ndiv 3 -> 1024 triangles / 2052 nodes
  Simulated time:    0 -> 10  (dt = 0.025, ~400 steps)
  Output cadence:    every 1 step(s)
  Output rows:       ~401
  Progress cadence:  every 40 step(s)
  CPU cores:         256 available, 16 Rayon worker thread(s)
  Strong coupling:   disabled
  Impulse scheme:    enabled
  Hamiltonian step:  disabled
  Hamiltonian midpt: disabled
  Variational step:  disabled
  Energy projection: disabled
  Projection particular metric: Euclidean
  Fluid KE gradient: disabled  (eps = 0.001, scale = 1, linear = 1, angular = 1)
  Fluid KE discrete gradient: disabled
  Impulse pair metric correction: disabled  (mode = pair discrete-gradient, cutoff = all pairs, inner/outer = 0/0, eps = 0.001, linear scale = 1, angular scale = 0)
  Impulse metric correction: disabled  (internal load constraint = disabled)
  Impulse variational defect probe: disabled
  Impulse quadratic pressure: disabled  (scale = 1)
  Added-mass stab:   disabled
  Exact BEM geometry: disabled
  Exact singular BEM: disabled
  Legacy singular SLP diagnostic: disabled
  Phi-dot blend:     0 (off)

  Solver guidance:
    - Strong coupling: use for stiff close-coupled runs; slower but more implicit.
    - Impulse scheme: use when impulse/momentum conservation or KE drift is the focus. Recommended.
    - Added-mass stab: use for higher mesh counts (ndiv > 3) to preserve stability - deprecated.
================================================
Solver starting - good luck!

Initial state:
  Body  1
    density:          4.000000
    shape axes ratio: (1.000000, 0.800000, 0.600000)
    initial KE ratio: 1.000000
    position:         (-4.000000, 0.000000, 0.000000)
    velocity:         (-1.225529, 2.864829, -2.820726)
    angular velocity: (4.066474, 0.206859, -4.785334)
    orientation:      (w=0.447214, i=0.894427, j=0.000000, k=0.000000)
  Body  2
    density:          4.000000
    shape axes ratio: (1.000000, 0.800000, 0.600000)
    initial KE ratio: 1.000000
    position:         (4.000000, 0.000000, 0.000000)
    velocity:         (-1.215099, 2.840445, -2.796717)
    angular velocity: (-1.945139, -5.698222, -1.795862)
    orientation:      (w=0.707107, i=0.000000, j=0.707107, k=0.000000)

Preparing first step: implicit scheme, no bootstrap passes required.
First step may take longer than later steps.

First step completed in 2.510 s.

Step    40/400    10.0% | t 1.000 | ETA 5m 46s | step 1.03s | KE 618.3342 | drift -0.15% | fluid 47.8696 | solid 570.4646
  Impulse FP iterations last/mean/max 9/8.53/9
Step    80/400    20.0% | t 2.000 | ETA 5m 6s | step 0.93s | KE 617.3583 | drift -0.31% | fluid 46.6438 | solid 570.7145
  Impulse FP iterations last/mean/max 9/8.64/9
Step   120/400    30.0% | t 3.000 | ETA 4m 23s | step 0.95s | KE 616.2567 | drift -0.49% | fluid 38.1106 | solid 578.1461
  Impulse FP iterations last/mean/max 9/8.60/9
Step   160/400    40.0% | t 4.000 | ETA 3m 43s | step 0.90s | KE 615.1659 | drift -0.66% | fluid 47.1192 | solid 568.0467
  Impulse FP iterations last/mean/max 9/8.63/9
Step   200/400    50.0% | t 5.000 | ETA 3m 4s | step 0.90s | KE 613.8985 | drift -0.87% | fluid 48.4756 | solid 565.4229
  Impulse FP iterations last/mean/max 9/8.64/9
Step   240/400    60.0% | t 6.000 | ETA 2m 25s | step 0.80s | KE 612.6996 | drift -1.06% | fluid 42.4807 | solid 570.2190
  Impulse FP iterations last/mean/max 8/8.61/9
Step   280/400    70.0% | t 7.000 | ETA 1m 48s | step 0.81s | KE 611.3210 | drift -1.28% | fluid 40.8929 | solid 570.4281
  Impulse FP iterations last/mean/max 8/8.63/9
Step   320/400    80.0% | t 8.000 | ETA 1m 11s | step 0.89s | KE 609.6679 | drift -1.55% | fluid 52.5146 | solid 557.1533
  Impulse FP iterations last/mean/max 9/8.60/9
Step   360/400    90.0% | t 9.000 | ETA 35s | step 0.88s | KE 607.9808 | drift -1.82% | fluid 60.3519 | solid 547.6288
  Impulse FP iterations last/mean/max 9/8.61/9
Solver finished successfully - good job!
Results saved successfully.

================== Run summary ==================
  Bodies:            2
  Triangles / nodes: 1024 / 2052
  Timesteps:         400  (dt = 0.025)
  Simulated time:    0 -> 10
  First-step setup:  2.510 s
  Mean time/step:    0.8862 s  (excl. first step)
  Total wall time:   5m 56s
  Impulse FP iters last/mean/max: 8 / 8.613 / 9
  Approx impulse solves/step:     8.615
  Impulse start cache hits/direct: 399 / 1
  Impulse global drift P/H:       8.150554e-10 / 7.972192e-4
  Impulse per-body max drift P/H: 1.548649e-9 / 1.527185e-4
  CPU cores:         256 available, 16 Rayon worker thread(s)
  Started:           2026-06-22 19:37:46
  Finished:          2026-06-22 19:43:42
  Output file:       /work/e643/e643/shared/multi_ellip/studies/multibody_convergence_sweep/runs/periodic_temporal_ellipsoid_1_0p8_0p6_rho4_E1_sep8_nd3_dt0p025/multiple_body_complete.dat
================================================
