
================ Simulation setup ================
  Run label:         /work/e643/e643/shared/multi_ellip/studies/two_body_paper_sweeps/runs/ellipsoid_1_0p8_0p6/ellipsoid_1_0p8_0p6_rho1_E4_sep8_run01_impulse_noproj/
  Started:           2026-06-22 19:34:43
  Input file:        /work/e643/e643/shared/multi_ellip/studies/two_body_paper_sweeps/runs/ellipsoid_1_0p8_0p6/ellipsoid_1_0p8_0p6_rho1_E4_sep8_run01_impulse_noproj/input.txt
  Output file:       /work/e643/e643/shared/multi_ellip/studies/two_body_paper_sweeps/runs/ellipsoid_1_0p8_0p6/ellipsoid_1_0p8_0p6_rho1_E4_sep8_run01_impulse_noproj/multiple_body_complete.dat
  Bodies:            2
  Fluid density:     1
  Mesh:              ndiv 2 -> 256 triangles / 516 nodes
  Simulated time:    0 -> 100  (dt = 0.05, ~2000 steps)
  Output cadence:    every 1 step(s)
  Output rows:       ~2001
  Progress cadence:  every 100 step(s)
  CPU cores:         256 available, 8 Rayon worker thread(s)
  Strong coupling:   disabled
  Impulse scheme:    enabled
  Hamiltonian step:  disabled
  Hamiltonian midpt: disabled
  Variational step:  disabled
  Energy projection: disabled
  Projection particular metric: Euclidean
  Fluid KE gradient: disabled  (eps = 0.001, scale = 1, linear = 1, angular = 1)
  Fluid KE discrete gradient: disabled
  Impulse pair metric correction: disabled  (mode = pair discrete-gradient, cutoff = all pairs, inner/outer = 0/0, eps = 0.001, linear scale = 1, angular scale = 0)
  Impulse metric correction: disabled  (internal load constraint = disabled)
  Impulse variational defect probe: disabled
  Impulse quadratic pressure: disabled  (scale = 1)
  Added-mass stab:   disabled
  Exact BEM geometry: disabled
  Exact singular BEM: disabled
  Legacy singular SLP diagnostic: disabled
  Phi-dot blend:     0 (off)

  Solver guidance:
    - Strong coupling: use for stiff close-coupled runs; slower but more implicit.
    - Impulse scheme: use when impulse/momentum conservation or KE drift is the focus. Recommended.
    - Added-mass stab: use for higher mesh counts (ndiv > 3) to preserve stability - deprecated.
================================================
Solver starting - good luck!

Initial state:
  Body  1
    density:          1.000000
    shape axes ratio: (1.000000, 0.800000, 0.600000)
    initial KE ratio: 4.000000
    position:         (-4.000000, 0.000000, 0.000000)
    velocity:         (1.441878, 0.970400, -0.824864)
    angular velocity: (-4.884259, 3.825617, 0.993523)
    orientation:      (w=0.447214, i=0.894427, j=0.000000, k=0.000000)
  Body  2
    density:          1.000000
    shape axes ratio: (1.000000, 0.800000, 0.600000)
    initial KE ratio: 4.000000
    position:         (4.000000, 0.000000, 0.000000)
    velocity:         (1.565129, 1.053349, -0.895373)
    angular velocity: (1.957782, -5.613505, -2.033241)
    orientation:      (w=0.707107, i=0.000000, j=0.707107, k=0.000000)

Preparing first step: implicit scheme, no bootstrap passes required.
First step may take longer than later steps.

First step completed in 0.353 s.

Step   100/2000    5.0% | t 5.000 | ETA 4m 50s | step 0.16s | KE 103.8933 | drift +0.17% | fluid 15.8947 | solid 87.9986
  Impulse FP iterations last/mean/max 11/11.04/12
Step   200/2000   10.0% | t 10.000 | ETA 4m 32s | step 0.13s | KE 103.8092 | drift +0.09% | fluid 13.9782 | solid 89.8311
  Impulse FP iterations last/mean/max 11/10.97/12
Step   300/2000   15.0% | t 15.000 | ETA 4m 15s | step 0.14s | KE 103.8668 | drift +0.14% | fluid 14.5033 | solid 89.3635
  Impulse FP iterations last/mean/max 11/10.96/12
Step   400/2000   20.0% | t 20.000 | ETA 4m 0s | step 0.15s | KE 103.8918 | drift +0.17% | fluid 12.5082 | solid 91.3836
  Impulse FP iterations last/mean/max 11/10.97/12
Step   500/2000   25.0% | t 25.000 | ETA 3m 44s | step 0.14s | KE 103.9634 | drift +0.24% | fluid 15.4156 | solid 88.5478
  Impulse FP iterations last/mean/max 11/10.95/12
Step   600/2000   30.0% | t 30.000 | ETA 3m 28s | step 0.14s | KE 103.8891 | drift +0.17% | fluid 16.0635 | solid 87.8257
  Impulse FP iterations last/mean/max 11/10.95/12
Step   700/2000   35.0% | t 35.000 | ETA 3m 13s | step 0.14s | KE 103.9219 | drift +0.20% | fluid 19.0560 | solid 84.8659
  Impulse FP iterations last/mean/max 11/10.94/12
Step   800/2000   40.0% | t 40.000 | ETA 2m 59s | step 0.14s | KE 103.8603 | drift +0.14% | fluid 17.5063 | solid 86.3539
  Impulse FP iterations last/mean/max 11/10.95/12
Step   900/2000   45.0% | t 45.000 | ETA 2m 44s | step 0.16s | KE 104.0266 | drift +0.30% | fluid 16.8891 | solid 87.1375
  Impulse FP iterations last/mean/max 12/10.95/12
Step  1000/2000   50.0% | t 50.000 | ETA 2m 29s | step 0.13s | KE 103.9072 | drift +0.18% | fluid 14.5540 | solid 89.3532
  Impulse FP iterations last/mean/max 11/10.95/12
Step  1100/2000   55.0% | t 55.000 | ETA 2m 14s | step 0.15s | KE 103.9391 | drift +0.21% | fluid 14.8539 | solid 89.0852
  Impulse FP iterations last/mean/max 11/10.95/12
Step  1200/2000   60.0% | t 60.000 | ETA 1m 59s | step 0.15s | KE 103.9490 | drift +0.22% | fluid 12.2756 | solid 91.6733
  Impulse FP iterations last/mean/max 11/10.95/12
Step  1300/2000   65.0% | t 65.000 | ETA 1m 44s | step 0.15s | KE 104.0034 | drift +0.28% | fluid 14.8722 | solid 89.1312
  Impulse FP iterations last/mean/max 11/10.95/12
Step  1400/2000   70.0% | t 70.000 | ETA 1m 29s | step 0.15s | KE 103.9573 | drift +0.23% | fluid 15.2873 | solid 88.6700
  Impulse FP iterations last/mean/max 11/10.95/12
Step  1500/2000   75.0% | t 75.000 | ETA 1m 14s | step 0.14s | KE 103.9276 | drift +0.20% | fluid 19.0087 | solid 84.9189
  Impulse FP iterations last/mean/max 11/10.95/12
Step  1600/2000   80.0% | t 80.000 | ETA 59s | step 0.15s | KE 103.8875 | drift +0.16% | fluid 17.8128 | solid 86.0747
  Impulse FP iterations last/mean/max 11/10.95/12
Step  1700/2000   85.0% | t 85.000 | ETA 44s | step 0.15s | KE 104.0459 | drift +0.32% | fluid 17.1051 | solid 86.9408
  Impulse FP iterations last/mean/max 11/10.95/12
Step  1800/2000   90.0% | t 90.000 | ETA 29s | step 0.15s | KE 103.9251 | drift +0.20% | fluid 15.2541 | solid 88.6710
  Impulse FP iterations last/mean/max 11/10.95/12
Step  1900/2000   95.0% | t 95.000 | ETA 14s | step 0.15s | KE 103.9574 | drift +0.23% | fluid 14.8404 | solid 89.1170
  Impulse FP iterations last/mean/max 11/10.95/12
Solver finished successfully - good job!
Results saved successfully.

================== Run summary ==================
  Bodies:            2
  Triangles / nodes: 256 / 516
  Timesteps:         2000  (dt = 0.05)
  Simulated time:    0 -> 100
  First-step setup:  0.353 s
  Mean time/step:    0.1489 s  (excl. first step)
  Total wall time:   4m 58s
  Impulse FP iters last/mean/max: 11 / 10.952 / 12
  Approx impulse solves/step:     10.953
  Impulse start cache hits/direct: 1999 / 1
  Impulse global drift P/H:       3.374976e-8 / 5.622374e-2
  Impulse per-body max drift P/H: 6.722565e-8 / 6.419298e-3
  CPU cores:         256 available, 8 Rayon worker thread(s)
  Started:           2026-06-22 19:34:43
  Finished:          2026-06-22 19:39:41
  Output file:       /work/e643/e643/shared/multi_ellip/studies/two_body_paper_sweeps/runs/ellipsoid_1_0p8_0p6/ellipsoid_1_0p8_0p6_rho1_E4_sep8_run01_impulse_noproj/multiple_body_complete.dat
================================================
