
================ Simulation setup ================
  Run label:         /work/e643/e643/shared/multi_ellip/studies/departing_sphericity_sweep/runs/triaxial/heterogeneous_sphere/triaxial_heterogeneous_sphere_eps0p001_rho1_E0p5_sep8_run07_impulse_noproj/
  Started:           2026-06-24 02:43:21
  Input file:        /work/e643/e643/shared/multi_ellip/studies/departing_sphericity_sweep/runs/triaxial/heterogeneous_sphere/triaxial_heterogeneous_sphere_eps0p001_rho1_E0p5_sep8_run07_impulse_noproj/input.txt
  Output file:       /work/e643/e643/shared/multi_ellip/studies/departing_sphericity_sweep/runs/triaxial/heterogeneous_sphere/triaxial_heterogeneous_sphere_eps0p001_rho1_E0p5_sep8_run07_impulse_noproj/multiple_body_complete.dat
  Bodies:            2
  Fluid density:     1
  Mesh:              ndiv 2 -> 256 triangles / 516 nodes
  Simulated time:    0 -> 100  (dt = 0.05, ~2000 steps)
  Output cadence:    every 1 step(s)
  Output rows:       ~2001
  Progress cadence:  every 100 step(s)
  CPU cores:         256 available, 8 Rayon worker thread(s)
  Strong coupling:   disabled
  Impulse scheme:    enabled
  Hamiltonian step:  disabled
  Hamiltonian midpt: disabled
  Variational step:  disabled
  Energy projection: disabled
  Projection particular metric: Euclidean
  Fluid KE gradient: disabled  (eps = 0.001, scale = 1, linear = 1, angular = 1)
  Fluid KE discrete gradient: disabled
  Impulse pair metric correction: disabled  (mode = pair discrete-gradient, cutoff = all pairs, inner/outer = 0/0, eps = 0.001, linear scale = 1, angular scale = 0)
  Impulse metric correction: disabled  (internal load constraint = disabled)
  Impulse variational defect probe: disabled
  Impulse quadratic pressure: disabled  (scale = 1)
  Added-mass stab:   disabled
  Exact BEM geometry: disabled
  Exact singular BEM: disabled
  Legacy singular SLP diagnostic: disabled
  Phi-dot blend:     0 (off)

  Solver guidance:
    - Strong coupling: use for stiff close-coupled runs; slower but more implicit.
    - Impulse scheme: use when impulse/momentum conservation or KE drift is the focus. Recommended.
    - Added-mass stab: use for higher mesh counts (ndiv > 3) to preserve stability - deprecated.
================================================
Solver starting - good luck!

Initial state:
  Body  1
    density:          1.000000
    shape axes ratio: (1.000000, 0.999001, 0.998003)
    initial KE ratio: 0.500000
    position:         (-4.000000, 0.000000, 0.000000)
    velocity:         (2.948219, 4.727824, 0.730473)
    angular velocity: (-2.471981, -5.776462, 0.014636)
    orientation:      (w=-0.649166, i=-0.315080, j=0.495413, k=0.483605)
  Body  2
    density:          1.000000
    shape axes ratio: (1.000000, 1.000000, 1.000000)
    initial KE ratio: 0.500000
    position:         (4.000000, 0.000000, 0.000000)
    velocity:         (2.948444, 4.728186, 0.730529)
    angular velocity: (-3.964897, 4.871763, -0.154701)
    orientation:      (w=0.179254, i=-0.599017, j=0.050700, k=0.778766)

Preparing first step: implicit scheme, no bootstrap passes required.
First step may take longer than later steps.

First step completed in 0.244 s.

Step   100/2000    5.0% | t 5.000 | ETA 2m 58s | step 0.10s | KE 272.0707 | drift +0.47% | fluid 72.4007 | solid 199.6700
  Impulse FP iterations last/mean/max 7/7.00/7
Step   200/2000   10.0% | t 10.000 | ETA 2m 42s | step 0.08s | KE 275.8610 | drift +1.86% | fluid 72.4021 | solid 203.4588
  Impulse FP iterations last/mean/max 7/7.00/7
Step   300/2000   15.0% | t 15.000 | ETA 2m 32s | step 0.10s | KE 282.2158 | drift +4.21% | fluid 72.4032 | solid 209.8127
  Impulse FP iterations last/mean/max 7/7.00/7
Step   400/2000   20.0% | t 20.000 | ETA 2m 25s | step 0.10s | KE 291.1672 | drift +7.52% | fluid 72.3912 | solid 218.7760
  Impulse FP iterations last/mean/max 7/7.00/7
Step   500/2000   25.0% | t 25.000 | ETA 2m 18s | step 0.09s | KE 302.7432 | drift +11.79% | fluid 72.4069 | solid 230.3364
  Impulse FP iterations last/mean/max 7/7.00/8
Step   600/2000   30.0% | t 30.000 | ETA 2m 11s | step 0.10s | KE 316.9746 | drift +17.05% | fluid 72.3942 | solid 244.5803
  Impulse FP iterations last/mean/max 7/7.02/8
Step   700/2000   35.0% | t 35.000 | ETA 2m 2s | step 0.10s | KE 333.8867 | drift +23.29% | fluid 72.4096 | solid 261.4770
  Impulse FP iterations last/mean/max 7/7.05/8
Step   800/2000   40.0% | t 40.000 | ETA 1m 54s | step 0.10s | KE 353.5080 | drift +30.54% | fluid 72.3927 | solid 281.1154
  Impulse FP iterations last/mean/max 7/7.07/8
Step   900/2000   45.0% | t 45.000 | ETA 1m 45s | step 0.10s | KE 375.8644 | drift +38.79% | fluid 72.3940 | solid 303.4704
  Impulse FP iterations last/mean/max 7/7.09/8
Step  1000/2000   50.0% | t 50.000 | ETA 1m 36s | step 0.11s | KE 400.9842 | drift +48.07% | fluid 72.4065 | solid 328.5777
  Impulse FP iterations last/mean/max 8/7.11/8
Step  1100/2000   55.0% | t 55.000 | ETA 1m 27s | step 0.10s | KE 428.8927 | drift +58.37% | fluid 72.3988 | solid 356.4939
  Impulse FP iterations last/mean/max 7/7.13/8
Step  1200/2000   60.0% | t 60.000 | ETA 1m 18s | step 0.10s | KE 459.6199 | drift +69.72% | fluid 72.4136 | solid 387.2063
  Impulse FP iterations last/mean/max 7/7.16/8
Step  1300/2000   65.0% | t 65.000 | ETA 1m 8s | step 0.10s | KE 493.1909 | drift +82.12% | fluid 72.4001 | solid 420.7908
  Impulse FP iterations last/mean/max 7/7.20/8
Step  1400/2000   70.0% | t 70.000 | ETA 59s | step 0.10s | KE 529.6347 | drift +95.57% | fluid 72.4033 | solid 457.2314
  Impulse FP iterations last/mean/max 7/7.23/8
Step  1500/2000   75.0% | t 75.000 | ETA 49s | step 0.12s | KE 568.9764 | drift +110.10% | fluid 72.4236 | solid 496.5528
  Impulse FP iterations last/mean/max 8/7.26/8
Step  1600/2000   80.0% | t 80.000 | ETA 40s | step 0.10s | KE 611.2543 | drift +125.71% | fluid 72.4058 | solid 538.8486
  Impulse FP iterations last/mean/max 8/7.29/8
Step  1700/2000   85.0% | t 85.000 | ETA 30s | step 0.11s | KE 656.4737 | drift +142.41% | fluid 72.4158 | solid 584.0580
  Impulse FP iterations last/mean/max 8/7.33/8
Step  1800/2000   90.0% | t 90.000 | ETA 20s | step 0.12s | KE 704.6810 | drift +160.21% | fluid 72.3956 | solid 632.2855
  Impulse FP iterations last/mean/max 8/7.36/8
Step  1900/2000   95.0% | t 95.000 | ETA 10s | step 0.10s | KE 755.8858 | drift +179.12% | fluid 72.4046 | solid 683.4812
  Impulse FP iterations last/mean/max 8/7.39/8
Solver finished successfully - good job!
Results saved successfully.

================== Run summary ==================
  Bodies:            2
  Triangles / nodes: 256 / 516
  Timesteps:         2000  (dt = 0.05)
  Simulated time:    0 -> 100
  First-step setup:  0.244 s
  Mean time/step:    0.1014 s  (excl. first step)
  Total wall time:   3m 22s
  Impulse FP iters last/mean/max: 8 / 7.409 / 8
  Approx impulse solves/step:     7.409
  Impulse start cache hits/direct: 1999 / 1
  Impulse global drift P/H:       1.424451e-8 / 8.742750e-2
  Impulse per-body max drift P/H: 2.343319e-8 / 5.659209e-3
  CPU cores:         256 available, 8 Rayon worker thread(s)
  Started:           2026-06-24 02:43:21
  Finished:          2026-06-24 02:46:44
  Output file:       /work/e643/e643/shared/multi_ellip/studies/departing_sphericity_sweep/runs/triaxial/heterogeneous_sphere/triaxial_heterogeneous_sphere_eps0p001_rho1_E0p5_sep8_run07_impulse_noproj/multiple_body_complete.dat
================================================
