
================ Simulation setup ================
  Run label:         /work/e643/e643/shared/multi_ellip/studies/two_body_paper_sweeps/runs/ellipsoid_1_0p8_0p6/ellipsoid_1_0p8_0p6_rho1_E0p2_sep3_run01_impulse_noproj/
  Started:           2026-06-22 19:34:41
  Input file:        /work/e643/e643/shared/multi_ellip/studies/two_body_paper_sweeps/runs/ellipsoid_1_0p8_0p6/ellipsoid_1_0p8_0p6_rho1_E0p2_sep3_run01_impulse_noproj/input.txt
  Output file:       /work/e643/e643/shared/multi_ellip/studies/two_body_paper_sweeps/runs/ellipsoid_1_0p8_0p6/ellipsoid_1_0p8_0p6_rho1_E0p2_sep3_run01_impulse_noproj/multiple_body_complete.dat
  Bodies:            2
  Fluid density:     1
  Mesh:              ndiv 2 -> 256 triangles / 516 nodes
  Simulated time:    0 -> 100  (dt = 0.05, ~2000 steps)
  Output cadence:    every 1 step(s)
  Output rows:       ~2001
  Progress cadence:  every 100 step(s)
  CPU cores:         256 available, 8 Rayon worker thread(s)
  Strong coupling:   disabled
  Impulse scheme:    enabled
  Hamiltonian step:  disabled
  Hamiltonian midpt: disabled
  Variational step:  disabled
  Energy projection: disabled
  Projection particular metric: Euclidean
  Fluid KE gradient: disabled  (eps = 0.001, scale = 1, linear = 1, angular = 1)
  Fluid KE discrete gradient: disabled
  Impulse pair metric correction: disabled  (mode = pair discrete-gradient, cutoff = all pairs, inner/outer = 0/0, eps = 0.001, linear scale = 1, angular scale = 0)
  Impulse metric correction: disabled  (internal load constraint = disabled)
  Impulse variational defect probe: disabled
  Impulse quadratic pressure: disabled  (scale = 1)
  Added-mass stab:   disabled
  Exact BEM geometry: disabled
  Exact singular BEM: disabled
  Legacy singular SLP diagnostic: disabled
  Phi-dot blend:     0 (off)

  Solver guidance:
    - Strong coupling: use for stiff close-coupled runs; slower but more implicit.
    - Impulse scheme: use when impulse/momentum conservation or KE drift is the focus. Recommended.
    - Added-mass stab: use for higher mesh counts (ndiv > 3) to preserve stability - deprecated.
================================================
Solver starting - good luck!

Initial state:
  Body  1
    density:          1.000000
    shape axes ratio: (1.000000, 0.800000, 0.600000)
    initial KE ratio: 0.200000
    position:         (-1.500000, 0.000000, 0.000000)
    velocity:         (3.387818, -4.482496, 6.989181)
    angular velocity: (-3.548063, 5.136460, -0.711647)
    orientation:      (w=0.447214, i=0.894427, j=0.000000, k=0.000000)
  Body  2
    density:          1.000000
    shape axes ratio: (1.000000, 0.800000, 0.600000)
    initial KE ratio: 0.200000
    position:         (1.500000, 0.000000, 0.000000)
    velocity:         (3.391638, -4.487551, 6.997062)
    angular velocity: (4.715027, 1.986298, -3.647131)
    orientation:      (w=0.707107, i=0.000000, j=0.707107, k=0.000000)

Preparing first step: implicit scheme, no bootstrap passes required.
First step may take longer than later steps.

First step completed in 0.237 s.

Step   100/2000    5.0% | t 5.000 | ETA 4m 53s | step 0.15s | KE 630.7391 | drift +8.55% | fluid 172.6693 | solid 458.0699
  Impulse FP iterations last/mean/max 11/11.51/13
Step   200/2000   10.0% | t 10.000 | ETA 4m 41s | step 0.16s | KE 628.2327 | drift +8.11% | fluid 200.7951 | solid 427.4376
  Impulse FP iterations last/mean/max 12/11.56/13
Step   300/2000   15.0% | t 15.000 | ETA 4m 25s | step 0.14s | KE 630.9037 | drift +8.57% | fluid 167.6081 | solid 463.2956
  Impulse FP iterations last/mean/max 11/11.57/13
Step   400/2000   20.0% | t 20.000 | ETA 4m 10s | step 0.17s | KE 630.2785 | drift +8.47% | fluid 171.2717 | solid 459.0068
  Impulse FP iterations last/mean/max 12/11.59/13
Step   500/2000   25.0% | t 25.000 | ETA 3m 55s | step 0.14s | KE 630.6845 | drift +8.54% | fluid 153.0644 | solid 477.6202
  Impulse FP iterations last/mean/max 11/11.59/13
Step   600/2000   30.0% | t 30.000 | ETA 3m 39s | step 0.15s | KE 627.7424 | drift +8.03% | fluid 191.6696 | solid 436.0727
  Impulse FP iterations last/mean/max 12/11.56/13
Step   700/2000   35.0% | t 35.000 | ETA 3m 23s | step 0.14s | KE 632.4263 | drift +8.84% | fluid 164.3927 | solid 468.0336
  Impulse FP iterations last/mean/max 11/11.55/13
Step   800/2000   40.0% | t 40.000 | ETA 3m 7s | step 0.15s | KE 630.4454 | drift +8.50% | fluid 158.2602 | solid 472.1853
  Impulse FP iterations last/mean/max 11/11.55/13
Step   900/2000   45.0% | t 45.000 | ETA 2m 52s | step 0.17s | KE 630.9654 | drift +8.59% | fluid 153.2366 | solid 477.7288
  Impulse FP iterations last/mean/max 12/11.55/13
Step  1000/2000   50.0% | t 50.000 | ETA 2m 36s | step 0.16s | KE 629.1607 | drift +8.27% | fluid 171.3701 | solid 457.7906
  Impulse FP iterations last/mean/max 11/11.55/13
Step  1100/2000   55.0% | t 55.000 | ETA 2m 21s | step 0.16s | KE 631.8324 | drift +8.73% | fluid 180.6942 | solid 451.1382
  Impulse FP iterations last/mean/max 12/11.54/13
Step  1200/2000   60.0% | t 60.000 | ETA 2m 5s | step 0.16s | KE 626.9279 | drift +7.89% | fluid 195.1190 | solid 431.8089
  Impulse FP iterations last/mean/max 12/11.54/13
Step  1300/2000   65.0% | t 65.000 | ETA 1m 49s | step 0.14s | KE 630.7566 | drift +8.55% | fluid 152.9868 | solid 477.7698
  Impulse FP iterations last/mean/max 10/11.54/13
Step  1400/2000   70.0% | t 70.000 | ETA 1m 33s | step 0.15s | KE 629.9925 | drift +8.42% | fluid 170.4489 | solid 459.5436
  Impulse FP iterations last/mean/max 11/11.54/13
Step  1500/2000   75.0% | t 75.000 | ETA 1m 18s | step 0.15s | KE 631.4312 | drift +8.67% | fluid 166.7128 | solid 464.7184
  Impulse FP iterations last/mean/max 12/11.53/13
Step  1600/2000   80.0% | t 80.000 | ETA 1m 2s | step 0.15s | KE 627.3107 | drift +7.96% | fluid 199.1126 | solid 428.1981
  Impulse FP iterations last/mean/max 12/11.53/13
Step  1700/2000   85.0% | t 85.000 | ETA 46s | step 0.13s | KE 629.3957 | drift +8.32% | fluid 174.3700 | solid 455.0257
  Impulse FP iterations last/mean/max 11/11.52/13
Step  1800/2000   90.0% | t 90.000 | ETA 30s | step 0.14s | KE 630.1689 | drift +8.45% | fluid 161.2379 | solid 468.9310
  Impulse FP iterations last/mean/max 11/11.52/13
Step  1900/2000   95.0% | t 95.000 | ETA 15s | step 0.13s | KE 630.9297 | drift +8.58% | fluid 164.9900 | solid 465.9397
  Impulse FP iterations last/mean/max 11/11.52/13
Solver finished successfully - good job!
Results saved successfully.

================== Run summary ==================
  Bodies:            2
  Triangles / nodes: 256 / 516
  Timesteps:         2000  (dt = 0.05)
  Simulated time:    0 -> 100
  First-step setup:  0.237 s
  Mean time/step:    0.1525 s  (excl. first step)
  Total wall time:   5m 5s
  Impulse FP iters last/mean/max: 12 / 11.515 / 13
  Approx impulse solves/step:     11.516
  Impulse start cache hits/direct: 1999 / 1
  Impulse global drift P/H:       4.739439e-9 / 6.137779e-2
  Impulse per-body max drift P/H: 6.660564e-9 / 1.494782e-2
  CPU cores:         256 available, 8 Rayon worker thread(s)
  Started:           2026-06-22 19:34:41
  Finished:          2026-06-22 19:39:47
  Output file:       /work/e643/e643/shared/multi_ellip/studies/two_body_paper_sweeps/runs/ellipsoid_1_0p8_0p6/ellipsoid_1_0p8_0p6_rho1_E0p2_sep3_run01_impulse_noproj/multiple_body_complete.dat
================================================
