
================ Simulation setup ================
  Run label:         /work/e643/e643/shared/multi_ellip/studies/two_body_paper_sweeps/runs/spheroid_1_0p7_0p7/spheroid_1_0p7_0p7_rho0p03_E1p5_sep5_run03_impulse_noproj/
  Started:           2026-06-24 02:24:10
  Input file:        /work/e643/e643/shared/multi_ellip/studies/two_body_paper_sweeps/runs/spheroid_1_0p7_0p7/spheroid_1_0p7_0p7_rho0p03_E1p5_sep5_run03_impulse_noproj/input.txt
  Output file:       /work/e643/e643/shared/multi_ellip/studies/two_body_paper_sweeps/runs/spheroid_1_0p7_0p7/spheroid_1_0p7_0p7_rho0p03_E1p5_sep5_run03_impulse_noproj/multiple_body_complete.dat
  Bodies:            2
  Fluid density:     1
  Mesh:              ndiv 2 -> 256 triangles / 516 nodes
  Simulated time:    0 -> 100  (dt = 0.05, ~2000 steps)
  Output cadence:    every 1 step(s)
  Output rows:       ~2001
  Progress cadence:  every 100 step(s)
  CPU cores:         256 available, 8 Rayon worker thread(s)
  Strong coupling:   disabled
  Impulse scheme:    enabled
  Hamiltonian step:  disabled
  Hamiltonian midpt: disabled
  Variational step:  disabled
  Energy projection: disabled
  Projection particular metric: Euclidean
  Fluid KE gradient: disabled  (eps = 0.001, scale = 1, linear = 1, angular = 1)
  Fluid KE discrete gradient: disabled
  Impulse pair metric correction: disabled  (mode = pair discrete-gradient, cutoff = all pairs, inner/outer = 0/0, eps = 0.001, linear scale = 1, angular scale = 0)
  Impulse metric correction: disabled  (internal load constraint = disabled)
  Impulse variational defect probe: disabled
  Impulse quadratic pressure: disabled  (scale = 1)
  Added-mass stab:   disabled
  Exact BEM geometry: disabled
  Exact singular BEM: disabled
  Legacy singular SLP diagnostic: disabled
  Phi-dot blend:     0 (off)

  Solver guidance:
    - Strong coupling: use for stiff close-coupled runs; slower but more implicit.
    - Impulse scheme: use when impulse/momentum conservation or KE drift is the focus. Recommended.
    - Added-mass stab: use for higher mesh counts (ndiv > 3) to preserve stability - deprecated.
================================================
Solver starting - good luck!

Initial state:
  Body  1
    density:          0.030000
    shape axes ratio: (1.000000, 0.700000, 0.700000)
    initial KE ratio: 1.500000
    position:         (-2.500000, 0.000000, 0.000000)
    velocity:         (1.306936, -2.229497, -2.409663)
    angular velocity: (1.105298, -4.041017, -4.682618)
    orientation:      (w=0.378334, i=-0.051145, j=0.393071, k=-0.836506)
  Body  2
    density:          0.030000
    shape axes ratio: (1.000000, 0.700000, 0.700000)
    initial KE ratio: 1.500000
    position:         (2.500000, 0.000000, 0.000000)
    velocity:         (1.313691, -2.241021, -2.422118)
    angular velocity: (0.197327, -1.377937, 6.127052)
    orientation:      (w=-0.843576, i=-0.277165, j=0.364502, k=-0.280532)

Preparing first step: implicit scheme, no bootstrap passes required.
First step may take longer than later steps.

First step completed in 0.359 s.

Step   100/2000    5.0% | t 5.000 | ETA 8m 13s | step 0.25s | KE 40.0835 | drift -0.20% | fluid 37.0396 | solid 3.0439
  Impulse FP iterations last/mean/max 18/18.23/22
Step   200/2000   10.0% | t 10.000 | ETA 7m 45s | step 0.28s | KE 39.9587 | drift -0.51% | fluid 36.4987 | solid 3.4599
  Impulse FP iterations last/mean/max 19/18.18/22
Step   300/2000   15.0% | t 15.000 | ETA 7m 14s | step 0.26s | KE 40.1009 | drift -0.16% | fluid 37.1053 | solid 2.9956
  Impulse FP iterations last/mean/max 18/18.10/22
Step   400/2000   20.0% | t 20.000 | ETA 6m 48s | step 0.24s | KE 40.1419 | drift -0.06% | fluid 36.9303 | solid 3.2115
  Impulse FP iterations last/mean/max 18/18.13/22
Step   500/2000   25.0% | t 25.000 | ETA 6m 21s | step 0.24s | KE 40.0729 | drift -0.23% | fluid 36.7291 | solid 3.3438
  Impulse FP iterations last/mean/max 18/18.15/22
Step   600/2000   30.0% | t 30.000 | ETA 5m 55s | step 0.24s | KE 40.1576 | drift -0.02% | fluid 37.1515 | solid 3.0061
  Impulse FP iterations last/mean/max 18/18.14/22
Step   700/2000   35.0% | t 35.000 | ETA 5m 29s | step 0.22s | KE 40.0993 | drift -0.16% | fluid 36.7343 | solid 3.3650
  Impulse FP iterations last/mean/max 17/18.15/22
Step   800/2000   40.0% | t 40.000 | ETA 5m 3s | step 0.31s | KE 40.1028 | drift -0.16% | fluid 36.8940 | solid 3.2088
  Impulse FP iterations last/mean/max 22/18.15/22
Step   900/2000   45.0% | t 45.000 | ETA 4m 37s | step 0.27s | KE 40.1850 | drift +0.05% | fluid 37.1664 | solid 3.0187
  Impulse FP iterations last/mean/max 19/18.15/22
Step  1000/2000   50.0% | t 50.000 | ETA 4m 12s | step 0.27s | KE 40.0766 | drift -0.22% | fluid 36.6446 | solid 3.4321
  Impulse FP iterations last/mean/max 20/18.17/22
Step  1100/2000   55.0% | t 55.000 | ETA 3m 47s | step 0.27s | KE 40.1233 | drift -0.10% | fluid 37.0066 | solid 3.1167
  Impulse FP iterations last/mean/max 20/18.17/22
Step  1200/2000   60.0% | t 60.000 | ETA 3m 21s | step 0.22s | KE 40.1684 | drift +0.01% | fluid 37.0563 | solid 3.1121
  Impulse FP iterations last/mean/max 16/18.17/22
Step  1300/2000   65.0% | t 65.000 | ETA 2m 56s | step 0.25s | KE 40.0775 | drift -0.22% | fluid 36.6432 | solid 3.4343
  Impulse FP iterations last/mean/max 19/18.16/22
Step  1400/2000   70.0% | t 70.000 | ETA 2m 30s | step 0.24s | KE 40.1511 | drift -0.04% | fluid 37.1482 | solid 3.0029
  Impulse FP iterations last/mean/max 18/18.16/22
Step  1500/2000   75.0% | t 75.000 | ETA 2m 5s | step 0.26s | KE 40.1380 | drift -0.07% | fluid 36.9215 | solid 3.2165
  Impulse FP iterations last/mean/max 19/18.15/22
Step  1600/2000   80.0% | t 80.000 | ETA 1m 40s | step 0.26s | KE 40.0950 | drift -0.18% | fluid 36.6682 | solid 3.4268
  Impulse FP iterations last/mean/max 19/18.15/22
Step  1700/2000   85.0% | t 85.000 | ETA 1m 15s | step 0.24s | KE 40.1506 | drift -0.04% | fluid 37.1969 | solid 2.9537
  Impulse FP iterations last/mean/max 17/18.16/22
Step  1800/2000   90.0% | t 90.000 | ETA 50s | step 0.27s | KE 40.1150 | drift -0.13% | fluid 36.8115 | solid 3.3035
  Impulse FP iterations last/mean/max 20/18.17/22
Step  1900/2000   95.0% | t 95.000 | ETA 25s | step 0.24s | KE 40.1385 | drift -0.07% | fluid 36.8142 | solid 3.3244
  Impulse FP iterations last/mean/max 17/18.17/22
Solver finished successfully - good job!
Results saved successfully.

================== Run summary ==================
  Bodies:            2
  Triangles / nodes: 256 / 516
  Timesteps:         2000  (dt = 0.05)
  Simulated time:    0 -> 100
  First-step setup:  0.359 s
  Mean time/step:    0.2508 s  (excl. first step)
  Total wall time:   8m 21s
  Impulse FP iters last/mean/max: 18 / 18.165 / 22
  Approx impulse solves/step:     18.165
  Impulse start cache hits/direct: 1999 / 1
  Impulse global drift P/H:       2.228824e-8 / 2.022688e-3
  Impulse per-body max drift P/H: 3.291240e-8 / 4.029234e-4
  CPU cores:         256 available, 8 Rayon worker thread(s)
  Started:           2026-06-24 02:24:10
  Finished:          2026-06-24 02:32:33
  Output file:       /work/e643/e643/shared/multi_ellip/studies/two_body_paper_sweeps/runs/spheroid_1_0p7_0p7/spheroid_1_0p7_0p7_rho0p03_E1p5_sep5_run03_impulse_noproj/multiple_body_complete.dat
================================================
