
================ Simulation setup ================
  Run label:         /work/e643/e643/shared/multi_ellip/studies/departing_sphericity_sweep/runs/spheroid_prolate/homogeneous/spheroid_prolate_homogeneous_eps0p3_rho1_E0p5_sep8_run01_impulse_noproj/
  Started:           2026-06-24 02:30:37
  Input file:        /work/e643/e643/shared/multi_ellip/studies/departing_sphericity_sweep/runs/spheroid_prolate/homogeneous/spheroid_prolate_homogeneous_eps0p3_rho1_E0p5_sep8_run01_impulse_noproj/input.txt
  Output file:       /work/e643/e643/shared/multi_ellip/studies/departing_sphericity_sweep/runs/spheroid_prolate/homogeneous/spheroid_prolate_homogeneous_eps0p3_rho1_E0p5_sep8_run01_impulse_noproj/multiple_body_complete.dat
  Bodies:            2
  Fluid density:     1
  Mesh:              ndiv 2 -> 256 triangles / 516 nodes
  Simulated time:    0 -> 100  (dt = 0.05, ~2000 steps)
  Output cadence:    every 1 step(s)
  Output rows:       ~2001
  Progress cadence:  every 100 step(s)
  CPU cores:         256 available, 8 Rayon worker thread(s)
  Strong coupling:   disabled
  Impulse scheme:    enabled
  Hamiltonian step:  disabled
  Hamiltonian midpt: disabled
  Variational step:  disabled
  Energy projection: disabled
  Projection particular metric: Euclidean
  Fluid KE gradient: disabled  (eps = 0.001, scale = 1, linear = 1, angular = 1)
  Fluid KE discrete gradient: disabled
  Impulse pair metric correction: disabled  (mode = pair discrete-gradient, cutoff = all pairs, inner/outer = 0/0, eps = 0.001, linear scale = 1, angular scale = 0)
  Impulse metric correction: disabled  (internal load constraint = disabled)
  Impulse variational defect probe: disabled
  Impulse quadratic pressure: disabled  (scale = 1)
  Added-mass stab:   disabled
  Exact BEM geometry: disabled
  Exact singular BEM: disabled
  Legacy singular SLP diagnostic: disabled
  Phi-dot blend:     0 (off)

  Solver guidance:
    - Strong coupling: use for stiff close-coupled runs; slower but more implicit.
    - Impulse scheme: use when impulse/momentum conservation or KE drift is the focus. Recommended.
    - Added-mass stab: use for higher mesh counts (ndiv > 3) to preserve stability - deprecated.
================================================
Solver starting - good luck!

Initial state:
  Body  1
    density:          1.000000
    shape axes ratio: (1.000000, 0.455166, 0.455166)
    initial KE ratio: 0.500000
    position:         (-4.000000, 0.000000, 0.000000)
    velocity:         (-2.026729, 6.294255, -0.460101)
    angular velocity: (-3.406204, 3.283791, -4.134357)
    orientation:      (w=-0.167027, i=-0.588994, j=-0.036282, k=-0.789856)
  Body  2
    density:          1.000000
    shape axes ratio: (1.000000, 0.455166, 0.455166)
    initial KE ratio: 0.500000
    position:         (4.000000, 0.000000, 0.000000)
    velocity:         (-1.917235, 5.954209, -0.435244)
    angular velocity: (-4.086808, 4.584401, -1.326529)
    orientation:      (w=-0.885606, i=0.270350, j=-0.371770, k=0.066325)

Preparing first step: implicit scheme, no bootstrap passes required.
First step may take longer than later steps.

First step completed in 0.336 s.

Step   100/2000    5.0% | t 5.000 | ETA 5m 21s | step 0.17s | KE 424.9930 | drift +0.02% | fluid 154.0967 | solid 270.8963
  Impulse FP iterations last/mean/max 12/11.90/13
Step   200/2000   10.0% | t 10.000 | ETA 5m 5s | step 0.17s | KE 425.9997 | drift +0.25% | fluid 152.4870 | solid 273.5127
  Impulse FP iterations last/mean/max 12/11.91/13
Step   300/2000   15.0% | t 15.000 | ETA 4m 48s | step 0.17s | KE 425.5268 | drift +0.14% | fluid 150.0745 | solid 275.4524
  Impulse FP iterations last/mean/max 12/11.90/13
Step   400/2000   20.0% | t 20.000 | ETA 4m 31s | step 0.17s | KE 425.4213 | drift +0.12% | fluid 155.0239 | solid 270.3974
  Impulse FP iterations last/mean/max 12/11.88/13
Step   500/2000   25.0% | t 25.000 | ETA 4m 14s | step 0.17s | KE 424.7998 | drift -0.03% | fluid 146.5420 | solid 278.2578
  Impulse FP iterations last/mean/max 12/11.87/13
Step   600/2000   30.0% | t 30.000 | ETA 3m 56s | step 0.18s | KE 425.3263 | drift +0.09% | fluid 144.5621 | solid 280.7642
  Impulse FP iterations last/mean/max 12/11.86/13
Step   700/2000   35.0% | t 35.000 | ETA 3m 40s | step 0.17s | KE 424.8403 | drift -0.02% | fluid 146.8057 | solid 278.0346
  Impulse FP iterations last/mean/max 12/11.85/13
Step   800/2000   40.0% | t 40.000 | ETA 3m 22s | step 0.17s | KE 425.6402 | drift +0.17% | fluid 153.5907 | solid 272.0496
  Impulse FP iterations last/mean/max 12/11.85/13
Step   900/2000   45.0% | t 45.000 | ETA 3m 5s | step 0.17s | KE 425.6861 | drift +0.18% | fluid 146.9550 | solid 278.7311
  Impulse FP iterations last/mean/max 12/11.85/13
Step  1000/2000   50.0% | t 50.000 | ETA 2m 48s | step 0.15s | KE 426.1700 | drift +0.29% | fluid 150.2224 | solid 275.9476
  Impulse FP iterations last/mean/max 12/11.84/13
Step  1100/2000   55.0% | t 55.000 | ETA 2m 31s | step 0.18s | KE 425.0512 | drift +0.03% | fluid 149.7775 | solid 275.2737
  Impulse FP iterations last/mean/max 12/11.84/13
Step  1200/2000   60.0% | t 60.000 | ETA 2m 14s | step 0.17s | KE 425.4634 | drift +0.13% | fluid 146.7322 | solid 278.7312
  Impulse FP iterations last/mean/max 12/11.84/13
Step  1300/2000   65.0% | t 65.000 | ETA 1m 57s | step 0.15s | KE 424.9072 | drift -0.00% | fluid 139.7391 | solid 285.1681
  Impulse FP iterations last/mean/max 12/11.83/13
Step  1400/2000   70.0% | t 70.000 | ETA 1m 40s | step 0.16s | KE 425.4860 | drift +0.13% | fluid 148.1709 | solid 277.3150
  Impulse FP iterations last/mean/max 12/11.83/13
Step  1500/2000   75.0% | t 75.000 | ETA 1m 23s | step 0.16s | KE 425.1770 | drift +0.06% | fluid 149.1485 | solid 276.0285
  Impulse FP iterations last/mean/max 12/11.83/13
Step  1600/2000   80.0% | t 80.000 | ETA 1m 6s | step 0.14s | KE 426.3263 | drift +0.33% | fluid 148.5218 | solid 277.8045
  Impulse FP iterations last/mean/max 12/11.83/13
Step  1700/2000   85.0% | t 85.000 | ETA 49s | step 0.13s | KE 425.6160 | drift +0.16% | fluid 146.5297 | solid 279.0864
  Impulse FP iterations last/mean/max 12/11.83/13
Step  1800/2000   90.0% | t 90.000 | ETA 32s | step 0.13s | KE 425.6436 | drift +0.17% | fluid 152.0568 | solid 273.5868
  Impulse FP iterations last/mean/max 12/11.83/13
Step  1900/2000   95.0% | t 95.000 | ETA 15s | step 0.13s | KE 424.8923 | drift -0.01% | fluid 143.1955 | solid 281.6967
  Impulse FP iterations last/mean/max 12/11.83/13
Solver finished successfully - good job!
Results saved successfully.

================== Run summary ==================
  Bodies:            2
  Triangles / nodes: 256 / 516
  Timesteps:         2000  (dt = 0.05)
  Simulated time:    0 -> 100
  First-step setup:  0.336 s
  Mean time/step:    0.1577 s  (excl. first step)
  Total wall time:   5m 15s
  Impulse FP iters last/mean/max: 12 / 11.824 / 13
  Approx impulse solves/step:     11.825
  Impulse start cache hits/direct: 1999 / 1
  Impulse global drift P/H:       6.672935e-9 / 7.972361e-3
  Impulse per-body max drift P/H: 9.588235e-9 / 1.415246e-3
  CPU cores:         256 available, 8 Rayon worker thread(s)
  Started:           2026-06-24 02:30:37
  Finished:          2026-06-24 02:35:52
  Output file:       /work/e643/e643/shared/multi_ellip/studies/departing_sphericity_sweep/runs/spheroid_prolate/homogeneous/spheroid_prolate_homogeneous_eps0p3_rho1_E0p5_sep8_run01_impulse_noproj/multiple_body_complete.dat
================================================
