
================ Simulation setup ================
  Run label:         /work/e643/e643/shared/multi_ellip/studies/departing_sphericity_sweep/runs/triaxial/homogeneous/triaxial_homogeneous_eps0p0001_rho1_E0p5_sep8_run03_impulse_noproj/
  Started:           2026-06-24 02:23:18
  Input file:        /work/e643/e643/shared/multi_ellip/studies/departing_sphericity_sweep/runs/triaxial/homogeneous/triaxial_homogeneous_eps0p0001_rho1_E0p5_sep8_run03_impulse_noproj/input.txt
  Output file:       /work/e643/e643/shared/multi_ellip/studies/departing_sphericity_sweep/runs/triaxial/homogeneous/triaxial_homogeneous_eps0p0001_rho1_E0p5_sep8_run03_impulse_noproj/multiple_body_complete.dat
  Bodies:            2
  Fluid density:     1
  Mesh:              ndiv 2 -> 256 triangles / 516 nodes
  Simulated time:    0 -> 100  (dt = 0.05, ~2000 steps)
  Output cadence:    every 1 step(s)
  Output rows:       ~2001
  Progress cadence:  every 100 step(s)
  CPU cores:         256 available, 8 Rayon worker thread(s)
  Strong coupling:   disabled
  Impulse scheme:    enabled
  Hamiltonian step:  disabled
  Hamiltonian midpt: disabled
  Variational step:  disabled
  Energy projection: disabled
  Projection particular metric: Euclidean
  Fluid KE gradient: disabled  (eps = 0.001, scale = 1, linear = 1, angular = 1)
  Fluid KE discrete gradient: disabled
  Impulse pair metric correction: disabled  (mode = pair discrete-gradient, cutoff = all pairs, inner/outer = 0/0, eps = 0.001, linear scale = 1, angular scale = 0)
  Impulse metric correction: disabled  (internal load constraint = disabled)
  Impulse variational defect probe: disabled
  Impulse quadratic pressure: disabled  (scale = 1)
  Added-mass stab:   disabled
  Exact BEM geometry: disabled
  Exact singular BEM: disabled
  Legacy singular SLP diagnostic: disabled
  Phi-dot blend:     0 (off)

  Solver guidance:
    - Strong coupling: use for stiff close-coupled runs; slower but more implicit.
    - Impulse scheme: use when impulse/momentum conservation or KE drift is the focus. Recommended.
    - Added-mass stab: use for higher mesh counts (ndiv > 3) to preserve stability - deprecated.
================================================
Solver starting - good luck!

Initial state:
  Body  1
    density:          1.000000
    shape axes ratio: (1.000000, 0.999900, 0.999800)
    initial KE ratio: 0.500000
    position:         (-4.000000, 0.000000, 0.000000)
    velocity:         (3.788784, 2.866804, 3.001949)
    angular velocity: (1.526560, 2.151201, -5.702663)
    orientation:      (w=-0.574950, i=-0.817587, j=0.031159, k=-0.003715)
  Body  2
    density:          1.000000
    shape axes ratio: (1.000000, 0.999900, 0.999800)
    initial KE ratio: 0.500000
    position:         (4.000000, 0.000000, 0.000000)
    velocity:         (3.788569, 2.866642, 3.001778)
    angular velocity: (-5.198185, -0.326357, -3.514368)
    orientation:      (w=0.059544, i=-0.552058, j=-0.057020, k=0.829720)

Preparing first step: implicit scheme, no bootstrap passes required.
First step may take longer than later steps.

First step completed in 0.294 s.

Step   100/2000    5.0% | t 5.000 | ETA 2m 32s | step 0.08s | KE 284.9852 | drift +5.26% | fluid 72.3102 | solid 212.6750
  Impulse FP iterations last/mean/max 6/6.02/7
Step   200/2000   10.0% | t 10.000 | ETA 2m 29s | step 0.09s | KE 302.4170 | drift +11.69% | fluid 72.3126 | solid 230.1043
  Impulse FP iterations last/mean/max 6/6.11/7
Step   300/2000   15.0% | t 15.000 | ETA 2m 24s | step 0.09s | KE 323.0456 | drift +19.31% | fluid 72.3159 | solid 250.7297
  Impulse FP iterations last/mean/max 6/6.20/7
Step   400/2000   20.0% | t 20.000 | ETA 2m 18s | step 0.10s | KE 346.8690 | drift +28.11% | fluid 72.3145 | solid 274.5545
  Impulse FP iterations last/mean/max 7/6.27/7
Step   500/2000   25.0% | t 25.000 | ETA 2m 11s | step 0.10s | KE 373.8838 | drift +38.09% | fluid 72.3114 | solid 301.5724
  Impulse FP iterations last/mean/max 7/6.35/7
Step   600/2000   30.0% | t 30.000 | ETA 2m 4s | step 0.09s | KE 404.0853 | drift +49.24% | fluid 72.3140 | solid 331.7713
  Impulse FP iterations last/mean/max 7/6.43/7
Step   700/2000   35.0% | t 35.000 | ETA 1m 57s | step 0.10s | KE 437.4707 | drift +61.57% | fluid 72.3157 | solid 365.1550
  Impulse FP iterations last/mean/max 7/6.48/7
Step   800/2000   40.0% | t 40.000 | ETA 1m 49s | step 0.10s | KE 474.0397 | drift +75.08% | fluid 72.3166 | solid 401.7232
  Impulse FP iterations last/mean/max 7/6.54/7
Step   900/2000   45.0% | t 45.000 | ETA 1m 40s | step 0.09s | KE 513.7917 | drift +89.76% | fluid 72.3117 | solid 441.4800
  Impulse FP iterations last/mean/max 7/6.58/7
Step  1000/2000   50.0% | t 50.000 | ETA 1m 32s | step 0.09s | KE 556.7191 | drift +105.62% | fluid 72.3144 | solid 484.4047
  Impulse FP iterations last/mean/max 7/6.63/7
Step  1100/2000   55.0% | t 55.000 | ETA 1m 23s | step 0.10s | KE 602.8209 | drift +122.65% | fluid 72.3171 | solid 530.5038
  Impulse FP iterations last/mean/max 7/6.66/7
Step  1200/2000   60.0% | t 60.000 | ETA 1m 14s | step 0.09s | KE 652.1002 | drift +140.85% | fluid 72.3136 | solid 579.7866
  Impulse FP iterations last/mean/max 7/6.69/7
Step  1300/2000   65.0% | t 65.000 | ETA 1m 5s | step 0.09s | KE 704.5484 | drift +160.22% | fluid 72.3174 | solid 632.2310
  Impulse FP iterations last/mean/max 7/6.71/7
Step  1400/2000   70.0% | t 70.000 | ETA 56s | step 0.10s | KE 760.1677 | drift +180.76% | fluid 72.3179 | solid 687.8498
  Impulse FP iterations last/mean/max 7/6.73/7
Step  1500/2000   75.0% | t 75.000 | ETA 47s | step 0.09s | KE 818.9585 | drift +202.47% | fluid 72.3153 | solid 746.6432
  Impulse FP iterations last/mean/max 7/6.75/7
Step  1600/2000   80.0% | t 80.000 | ETA 37s | step 0.10s | KE 880.9096 | drift +225.35% | fluid 72.3164 | solid 808.5932
  Impulse FP iterations last/mean/max 7/6.76/7
Step  1700/2000   85.0% | t 85.000 | ETA 28s | step 0.08s | KE 946.0327 | drift +249.41% | fluid 72.3134 | solid 873.7193
  Impulse FP iterations last/mean/max 7/6.78/7
Step  1800/2000   90.0% | t 90.000 | ETA 18s | step 0.07s | KE 1014.3084 | drift +274.62% | fluid 72.3165 | solid 941.9919
  Impulse FP iterations last/mean/max 7/6.79/7
Step  1900/2000   95.0% | t 95.000 | ETA 9s | step 0.07s | KE 1085.7503 | drift +301.01% | fluid 72.3154 | solid 1013.4349
  Impulse FP iterations last/mean/max 7/6.80/7
Solver finished successfully - good job!
Results saved successfully.

================== Run summary ==================
  Bodies:            2
  Triangles / nodes: 256 / 516
  Timesteps:         2000  (dt = 0.05)
  Simulated time:    0 -> 100
  First-step setup:  0.294 s
  Mean time/step:    0.0899 s  (excl. first step)
  Total wall time:   3m 0s
  Impulse FP iters last/mean/max: 7 / 6.812 / 7
  Approx impulse solves/step:     6.812
  Impulse start cache hits/direct: 1999 / 1
  Impulse global drift P/H:       1.997368e-9 / 5.834996e-2
  Impulse per-body max drift P/H: 2.521305e-9 / 7.864348e-3
  CPU cores:         256 available, 8 Rayon worker thread(s)
  Started:           2026-06-24 02:23:18
  Finished:          2026-06-24 02:26:20
  Output file:       /work/e643/e643/shared/multi_ellip/studies/departing_sphericity_sweep/runs/triaxial/homogeneous/triaxial_homogeneous_eps0p0001_rho1_E0p5_sep8_run03_impulse_noproj/multiple_body_complete.dat
================================================
