
================ Simulation setup ================
  Run label:         /work/e643/e643/shared/multi_ellip/studies/two_body_paper_sweeps/runs/spheroid_1_0p7_0p7/spheroid_1_0p7_0p7_rho0p3_E11_sep11_run05_impulse_noproj/
  Started:           2026-06-24 01:52:42
  Input file:        /work/e643/e643/shared/multi_ellip/studies/two_body_paper_sweeps/runs/spheroid_1_0p7_0p7/spheroid_1_0p7_0p7_rho0p3_E11_sep11_run05_impulse_noproj/input.txt
  Output file:       /work/e643/e643/shared/multi_ellip/studies/two_body_paper_sweeps/runs/spheroid_1_0p7_0p7/spheroid_1_0p7_0p7_rho0p3_E11_sep11_run05_impulse_noproj/multiple_body_complete.dat
  Bodies:            2
  Fluid density:     1
  Mesh:              ndiv 2 -> 256 triangles / 516 nodes
  Simulated time:    0 -> 100  (dt = 0.05, ~2000 steps)
  Output cadence:    every 1 step(s)
  Output rows:       ~2001
  Progress cadence:  every 100 step(s)
  CPU cores:         256 available, 8 Rayon worker thread(s)
  Strong coupling:   disabled
  Impulse scheme:    enabled
  Hamiltonian step:  disabled
  Hamiltonian midpt: disabled
  Variational step:  disabled
  Energy projection: disabled
  Projection particular metric: Euclidean
  Fluid KE gradient: disabled  (eps = 0.001, scale = 1, linear = 1, angular = 1)
  Fluid KE discrete gradient: disabled
  Impulse pair metric correction: disabled  (mode = pair discrete-gradient, cutoff = all pairs, inner/outer = 0/0, eps = 0.001, linear scale = 1, angular scale = 0)
  Impulse metric correction: disabled  (internal load constraint = disabled)
  Impulse variational defect probe: disabled
  Impulse quadratic pressure: disabled  (scale = 1)
  Added-mass stab:   disabled
  Exact BEM geometry: disabled
  Exact singular BEM: disabled
  Legacy singular SLP diagnostic: disabled
  Phi-dot blend:     0 (off)

  Solver guidance:
    - Strong coupling: use for stiff close-coupled runs; slower but more implicit.
    - Impulse scheme: use when impulse/momentum conservation or KE drift is the focus. Recommended.
    - Added-mass stab: use for higher mesh counts (ndiv > 3) to preserve stability - deprecated.
================================================
Solver starting - good luck!

Initial state:
  Body  1
    density:          0.300000
    shape axes ratio: (1.000000, 0.700000, 0.700000)
    initial KE ratio: 11.000000
    position:         (-5.500000, 0.000000, 0.000000)
    velocity:         (1.161147, 0.491994, 0.118419)
    angular velocity: (2.793353, -5.403665, -1.573532)
    orientation:      (w=-0.003579, i=0.195196, j=0.099809, k=0.975666)
  Body  2
    density:          0.300000
    shape axes ratio: (1.000000, 0.700000, 0.700000)
    initial KE ratio: 11.000000
    position:         (5.500000, 0.000000, 0.000000)
    velocity:         (1.132145, 0.479705, 0.115462)
    angular velocity: (3.620462, 3.860428, 3.386409)
    orientation:      (w=0.353281, i=0.118175, j=-0.756043, k=-0.538169)

Preparing first step: implicit scheme, no bootstrap passes required.
First step may take longer than later steps.

First step completed in 0.333 s.

Step   100/2000    5.0% | t 5.000 | ETA 5m 19s | step 0.17s | KE 30.9737 | drift -0.16% | fluid 7.6058 | solid 23.3679
  Impulse FP iterations last/mean/max 12/11.80/12
Step   200/2000   10.0% | t 10.000 | ETA 4m 45s | step 0.12s | KE 31.0154 | drift -0.03% | fluid 7.6103 | solid 23.4051
  Impulse FP iterations last/mean/max 11/11.76/12
Step   300/2000   15.0% | t 15.000 | ETA 4m 23s | step 0.17s | KE 31.1472 | drift +0.40% | fluid 7.6299 | solid 23.5174
  Impulse FP iterations last/mean/max 12/11.70/12
Step   400/2000   20.0% | t 20.000 | ETA 4m 7s | step 0.16s | KE 31.3201 | drift +0.95% | fluid 7.6583 | solid 23.6618
  Impulse FP iterations last/mean/max 11/11.64/12
Step   500/2000   25.0% | t 25.000 | ETA 3m 54s | step 0.16s | KE 31.4922 | drift +1.51% | fluid 7.6946 | solid 23.7977
  Impulse FP iterations last/mean/max 11/11.59/12
Step   600/2000   30.0% | t 30.000 | ETA 3m 39s | step 0.18s | KE 31.6311 | drift +1.96% | fluid 7.7135 | solid 23.9176
  Impulse FP iterations last/mean/max 12/11.55/12
Step   700/2000   35.0% | t 35.000 | ETA 3m 25s | step 0.17s | KE 31.7235 | drift +2.25% | fluid 7.7500 | solid 23.9734
  Impulse FP iterations last/mean/max 11/11.53/12
Step   800/2000   40.0% | t 40.000 | ETA 3m 10s | step 0.16s | KE 31.7791 | drift +2.43% | fluid 7.7461 | solid 24.0331
  Impulse FP iterations last/mean/max 11/11.52/12
Step   900/2000   45.0% | t 45.000 | ETA 2m 55s | step 0.17s | KE 31.7914 | drift +2.47% | fluid 7.7677 | solid 24.0237
  Impulse FP iterations last/mean/max 11/11.51/12
Step  1000/2000   50.0% | t 50.000 | ETA 2m 39s | step 0.17s | KE 31.7919 | drift +2.47% | fluid 7.7471 | solid 24.0448
  Impulse FP iterations last/mean/max 12/11.52/12
Step  1100/2000   55.0% | t 55.000 | ETA 2m 24s | step 0.18s | KE 31.7768 | drift +2.43% | fluid 7.7522 | solid 24.0247
  Impulse FP iterations last/mean/max 12/11.52/12
Step  1200/2000   60.0% | t 60.000 | ETA 2m 8s | step 0.14s | KE 31.7668 | drift +2.39% | fluid 7.7389 | solid 24.0279
  Impulse FP iterations last/mean/max 11/11.52/12
Step  1300/2000   65.0% | t 65.000 | ETA 1m 52s | step 0.17s | KE 31.7621 | drift +2.38% | fluid 7.7358 | solid 24.0263
  Impulse FP iterations last/mean/max 12/11.52/12
Step  1400/2000   70.0% | t 70.000 | ETA 1m 36s | step 0.15s | KE 31.7610 | drift +2.38% | fluid 7.7439 | solid 24.0171
  Impulse FP iterations last/mean/max 11/11.52/12
Step  1500/2000   75.0% | t 75.000 | ETA 1m 20s | step 0.16s | KE 31.7699 | drift +2.40% | fluid 7.7360 | solid 24.0339
  Impulse FP iterations last/mean/max 11/11.53/12
Step  1600/2000   80.0% | t 80.000 | ETA 1m 4s | step 0.15s | KE 31.7718 | drift +2.41% | fluid 7.7557 | solid 24.0160
  Impulse FP iterations last/mean/max 11/11.53/12
Step  1700/2000   85.0% | t 85.000 | ETA 48s | step 0.17s | KE 31.7799 | drift +2.44% | fluid 7.7427 | solid 24.0372
  Impulse FP iterations last/mean/max 12/11.53/12
Step  1800/2000   90.0% | t 90.000 | ETA 32s | step 0.17s | KE 31.7772 | drift +2.43% | fluid 7.7577 | solid 24.0195
  Impulse FP iterations last/mean/max 12/11.54/12
Step  1900/2000   95.0% | t 95.000 | ETA 16s | step 0.16s | KE 31.7794 | drift +2.43% | fluid 7.7464 | solid 24.0330
  Impulse FP iterations last/mean/max 11/11.55/12
Solver finished successfully - good job!
Results saved successfully.

================== Run summary ==================
  Bodies:            2
  Triangles / nodes: 256 / 516
  Timesteps:         2000  (dt = 0.05)
  Simulated time:    0 -> 100
  First-step setup:  0.333 s
  Mean time/step:    0.1618 s  (excl. first step)
  Total wall time:   5m 23s
  Impulse FP iters last/mean/max: 12 / 11.549 / 12
  Approx impulse solves/step:     11.550
  Impulse start cache hits/direct: 1999 / 1
  Impulse global drift P/H:       3.880918e-8 / 2.121458e-2
  Impulse per-body max drift P/H: 6.098155e-8 / 6.063447e-3
  CPU cores:         256 available, 8 Rayon worker thread(s)
  Started:           2026-06-24 01:52:42
  Finished:          2026-06-24 01:58:06
  Output file:       /work/e643/e643/shared/multi_ellip/studies/two_body_paper_sweeps/runs/spheroid_1_0p7_0p7/spheroid_1_0p7_0p7_rho0p3_E11_sep11_run05_impulse_noproj/multiple_body_complete.dat
================================================
