
================ Simulation setup ================
  Run label:         /work/e643/e643/shared/multi_ellip/studies/two_body_paper_sweeps/runs/spheroid_1_0p7_0p7/spheroid_1_0p7_0p7_rho10_E30_sep11_run05_impulse_noproj/
  Started:           2026-06-24 01:21:55
  Input file:        /work/e643/e643/shared/multi_ellip/studies/two_body_paper_sweeps/runs/spheroid_1_0p7_0p7/spheroid_1_0p7_0p7_rho10_E30_sep11_run05_impulse_noproj/input.txt
  Output file:       /work/e643/e643/shared/multi_ellip/studies/two_body_paper_sweeps/runs/spheroid_1_0p7_0p7/spheroid_1_0p7_0p7_rho10_E30_sep11_run05_impulse_noproj/multiple_body_complete.dat
  Bodies:            2
  Fluid density:     1
  Mesh:              ndiv 2 -> 256 triangles / 516 nodes
  Simulated time:    0 -> 100  (dt = 0.05, ~2000 steps)
  Output cadence:    every 1 step(s)
  Output rows:       ~2001
  Progress cadence:  every 100 step(s)
  CPU cores:         256 available, 8 Rayon worker thread(s)
  Strong coupling:   disabled
  Impulse scheme:    enabled
  Hamiltonian step:  disabled
  Hamiltonian midpt: disabled
  Variational step:  disabled
  Energy projection: disabled
  Projection particular metric: Euclidean
  Fluid KE gradient: disabled  (eps = 0.001, scale = 1, linear = 1, angular = 1)
  Fluid KE discrete gradient: disabled
  Impulse pair metric correction: disabled  (mode = pair discrete-gradient, cutoff = all pairs, inner/outer = 0/0, eps = 0.001, linear scale = 1, angular scale = 0)
  Impulse metric correction: disabled  (internal load constraint = disabled)
  Impulse variational defect probe: disabled
  Impulse quadratic pressure: disabled  (scale = 1)
  Added-mass stab:   disabled
  Exact BEM geometry: disabled
  Exact singular BEM: disabled
  Legacy singular SLP diagnostic: disabled
  Phi-dot blend:     0 (off)

  Solver guidance:
    - Strong coupling: use for stiff close-coupled runs; slower but more implicit.
    - Impulse scheme: use when impulse/momentum conservation or KE drift is the focus. Recommended.
    - Added-mass stab: use for higher mesh counts (ndiv > 3) to preserve stability - deprecated.
================================================
Solver starting - good luck!

Initial state:
  Body  1
    density:          10.000000
    shape axes ratio: (1.000000, 0.700000, 0.700000)
    initial KE ratio: 30.000000
    position:         (-5.500000, 0.000000, 0.000000)
    velocity:         (-0.302839, 0.518511, 0.387399)
    angular velocity: (-4.689492, -4.175107, 0.235728)
    orientation:      (w=0.397359, i=-0.795011, j=-0.222014, k=0.400965)
  Body  2
    density:          10.000000
    shape axes ratio: (1.000000, 0.700000, 0.700000)
    initial KE ratio: 30.000000
    position:         (5.500000, 0.000000, 0.000000)
    velocity:         (-0.308390, 0.528015, 0.394499)
    angular velocity: (4.305601, -0.565826, -4.540931)
    orientation:      (w=-0.339653, i=0.785123, j=0.141627, k=0.498155)

Preparing first step: implicit scheme, no bootstrap passes required.
First step may take longer than later steps.

First step completed in 0.227 s.

Step   100/2000    5.0% | t 5.000 | ETA 2m 46s | step 0.08s | KE 697.8762 | drift -0.00% | fluid 4.7258 | solid 693.1503
  Impulse FP iterations last/mean/max 6/6.81/8
Step   200/2000   10.0% | t 10.000 | ETA 2m 45s | step 0.08s | KE 697.8637 | drift -0.00% | fluid 4.8221 | solid 693.0417
  Impulse FP iterations last/mean/max 6/6.83/8
Step   300/2000   15.0% | t 15.000 | ETA 2m 39s | step 0.10s | KE 697.8447 | drift -0.01% | fluid 4.9715 | solid 692.8733
  Impulse FP iterations last/mean/max 7/6.84/8
Step   400/2000   20.0% | t 20.000 | ETA 2m 31s | step 0.11s | KE 697.8338 | drift -0.01% | fluid 4.8670 | solid 692.9669
  Impulse FP iterations last/mean/max 8/6.83/8
Step   500/2000   25.0% | t 25.000 | ETA 2m 22s | step 0.09s | KE 697.8231 | drift -0.01% | fluid 4.9571 | solid 692.8660
  Impulse FP iterations last/mean/max 6/6.83/8
Step   600/2000   30.0% | t 30.000 | ETA 2m 12s | step 0.09s | KE 697.8063 | drift -0.01% | fluid 4.9862 | solid 692.8200
  Impulse FP iterations last/mean/max 7/6.83/8
Step   700/2000   35.0% | t 35.000 | ETA 2m 3s | step 0.11s | KE 697.7899 | drift -0.01% | fluid 4.8663 | solid 692.9236
  Impulse FP iterations last/mean/max 8/6.83/8
Step   800/2000   40.0% | t 40.000 | ETA 1m 54s | step 0.09s | KE 697.7753 | drift -0.02% | fluid 4.9216 | solid 692.8536
  Impulse FP iterations last/mean/max 7/6.83/8
Step   900/2000   45.0% | t 45.000 | ETA 1m 44s | step 0.09s | KE 697.7614 | drift -0.02% | fluid 4.8287 | solid 692.9327
  Impulse FP iterations last/mean/max 6/6.83/8
Step  1000/2000   50.0% | t 50.000 | ETA 1m 35s | step 0.10s | KE 697.7436 | drift -0.02% | fluid 4.7602 | solid 692.9834
  Impulse FP iterations last/mean/max 7/6.83/8
Step  1100/2000   55.0% | t 55.000 | ETA 1m 26s | step 0.10s | KE 697.7223 | drift -0.02% | fluid 5.0312 | solid 692.6912
  Impulse FP iterations last/mean/max 7/6.83/8
Step  1200/2000   60.0% | t 60.000 | ETA 1m 16s | step 0.09s | KE 697.7097 | drift -0.02% | fluid 4.9812 | solid 692.7284
  Impulse FP iterations last/mean/max 6/6.83/8
Step  1300/2000   65.0% | t 65.000 | ETA 1m 7s | step 0.10s | KE 697.6948 | drift -0.03% | fluid 4.7966 | solid 692.8983
  Impulse FP iterations last/mean/max 7/6.83/8
Step  1400/2000   70.0% | t 70.000 | ETA 57s | step 0.11s | KE 697.6690 | drift -0.03% | fluid 5.0328 | solid 692.6362
  Impulse FP iterations last/mean/max 7/6.83/8
Step  1500/2000   75.0% | t 75.000 | ETA 47s | step 0.10s | KE 697.6515 | drift -0.03% | fluid 4.9564 | solid 692.6951
  Impulse FP iterations last/mean/max 7/6.83/8
Step  1600/2000   80.0% | t 80.000 | ETA 38s | step 0.09s | KE 697.6392 | drift -0.03% | fluid 4.6581 | solid 692.9812
  Impulse FP iterations last/mean/max 6/6.83/8
Step  1700/2000   85.0% | t 85.000 | ETA 28s | step 0.10s | KE 697.6137 | drift -0.04% | fluid 4.9035 | solid 692.7103
  Impulse FP iterations last/mean/max 7/6.83/8
Step  1800/2000   90.0% | t 90.000 | ETA 19s | step 0.09s | KE 697.5910 | drift -0.04% | fluid 5.0248 | solid 692.5662
  Impulse FP iterations last/mean/max 7/6.83/8
Step  1900/2000   95.0% | t 95.000 | ETA 9s | step 0.10s | KE 697.5769 | drift -0.04% | fluid 4.8217 | solid 692.7552
  Impulse FP iterations last/mean/max 7/6.83/8
Solver finished successfully - good job!
Results saved successfully.

================== Run summary ==================
  Bodies:            2
  Triangles / nodes: 256 / 516
  Timesteps:         2000  (dt = 0.05)
  Simulated time:    0 -> 100
  First-step setup:  0.227 s
  Mean time/step:    0.0956 s  (excl. first step)
  Total wall time:   3m 11s
  Impulse FP iters last/mean/max: 7 / 6.829 / 8
  Approx impulse solves/step:     6.829
  Impulse start cache hits/direct: 1999 / 1
  Impulse global drift P/H:       6.792228e-9 / 5.329557e-3
  Impulse per-body max drift P/H: 1.825974e-8 / 3.011217e-3
  CPU cores:         256 available, 8 Rayon worker thread(s)
  Started:           2026-06-24 01:21:55
  Finished:          2026-06-24 01:25:06
  Output file:       /work/e643/e643/shared/multi_ellip/studies/two_body_paper_sweeps/runs/spheroid_1_0p7_0p7/spheroid_1_0p7_0p7_rho10_E30_sep11_run05_impulse_noproj/multiple_body_complete.dat
================================================
