
================ Simulation setup ================
  Run label:         /work/e643/e643/shared/multi_ellip/studies/departing_sphericity_sweep/runs/spheroid_prolate/homogeneous/spheroid_prolate_homogeneous_eps0p3_rho1_E0p5_sep8_run04_impulse_noproj/
  Started:           2026-06-24 02:30:37
  Input file:        /work/e643/e643/shared/multi_ellip/studies/departing_sphericity_sweep/runs/spheroid_prolate/homogeneous/spheroid_prolate_homogeneous_eps0p3_rho1_E0p5_sep8_run04_impulse_noproj/input.txt
  Output file:       /work/e643/e643/shared/multi_ellip/studies/departing_sphericity_sweep/runs/spheroid_prolate/homogeneous/spheroid_prolate_homogeneous_eps0p3_rho1_E0p5_sep8_run04_impulse_noproj/multiple_body_complete.dat
  Bodies:            2
  Fluid density:     1
  Mesh:              ndiv 2 -> 256 triangles / 516 nodes
  Simulated time:    0 -> 100  (dt = 0.05, ~2000 steps)
  Output cadence:    every 1 step(s)
  Output rows:       ~2001
  Progress cadence:  every 100 step(s)
  CPU cores:         256 available, 8 Rayon worker thread(s)
  Strong coupling:   disabled
  Impulse scheme:    enabled
  Hamiltonian step:  disabled
  Hamiltonian midpt: disabled
  Variational step:  disabled
  Energy projection: disabled
  Projection particular metric: Euclidean
  Fluid KE gradient: disabled  (eps = 0.001, scale = 1, linear = 1, angular = 1)
  Fluid KE discrete gradient: disabled
  Impulse pair metric correction: disabled  (mode = pair discrete-gradient, cutoff = all pairs, inner/outer = 0/0, eps = 0.001, linear scale = 1, angular scale = 0)
  Impulse metric correction: disabled  (internal load constraint = disabled)
  Impulse variational defect probe: disabled
  Impulse quadratic pressure: disabled  (scale = 1)
  Added-mass stab:   disabled
  Exact BEM geometry: disabled
  Exact singular BEM: disabled
  Legacy singular SLP diagnostic: disabled
  Phi-dot blend:     0 (off)

  Solver guidance:
    - Strong coupling: use for stiff close-coupled runs; slower but more implicit.
    - Impulse scheme: use when impulse/momentum conservation or KE drift is the focus. Recommended.
    - Added-mass stab: use for higher mesh counts (ndiv > 3) to preserve stability - deprecated.
================================================
Solver starting - good luck!

Initial state:
  Body  1
    density:          1.000000
    shape axes ratio: (1.000000, 0.455166, 0.455166)
    initial KE ratio: 0.500000
    position:         (-4.000000, 0.000000, 0.000000)
    velocity:         (-3.821290, 5.020154, 0.661220)
    angular velocity: (3.960091, 0.966928, 4.781333)
    orientation:      (w=0.413965, i=0.422324, j=0.624451, k=-0.510232)
  Body  2
    density:          1.000000
    shape axes ratio: (1.000000, 0.455166, 0.455166)
    initial KE ratio: 0.500000
    position:         (4.000000, 0.000000, 0.000000)
    velocity:         (-3.122980, 4.102761, 0.540388)
    angular velocity: (5.516937, 0.451986, 2.972800)
    orientation:      (w=-0.544457, i=-0.378048, j=0.649565, k=-0.372439)

Preparing first step: implicit scheme, no bootstrap passes required.
First step may take longer than later steps.

First step completed in 0.329 s.

Step   100/2000    5.0% | t 5.000 | ETA 5m 26s | step 0.15s | KE 356.4310 | drift +1.90% | fluid 111.4890 | solid 244.9420
  Impulse FP iterations last/mean/max 11/12.00/13
Step   200/2000   10.0% | t 10.000 | ETA 4m 53s | step 0.14s | KE 352.5184 | drift +0.78% | fluid 118.6779 | solid 233.8405
  Impulse FP iterations last/mean/max 12/12.02/13
Step   300/2000   15.0% | t 15.000 | ETA 4m 32s | step 0.15s | KE 351.9895 | drift +0.63% | fluid 119.3452 | solid 232.6443
  Impulse FP iterations last/mean/max 12/12.02/13
Step   400/2000   20.0% | t 20.000 | ETA 4m 20s | step 0.17s | KE 353.0529 | drift +0.93% | fluid 107.0502 | solid 246.0027
  Impulse FP iterations last/mean/max 12/12.03/13
Step   500/2000   25.0% | t 25.000 | ETA 4m 7s | step 0.17s | KE 352.4901 | drift +0.77% | fluid 119.0710 | solid 233.4192
  Impulse FP iterations last/mean/max 12/12.03/13
Step   600/2000   30.0% | t 30.000 | ETA 3m 52s | step 0.18s | KE 352.9052 | drift +0.89% | fluid 115.7557 | solid 237.1495
  Impulse FP iterations last/mean/max 12/12.03/13
Step   700/2000   35.0% | t 35.000 | ETA 3m 37s | step 0.17s | KE 352.9423 | drift +0.90% | fluid 119.9628 | solid 232.9796
  Impulse FP iterations last/mean/max 12/12.03/13
Step   800/2000   40.0% | t 40.000 | ETA 3m 21s | step 0.18s | KE 352.6521 | drift +0.82% | fluid 118.4766 | solid 234.1754
  Impulse FP iterations last/mean/max 12/12.03/13
Step   900/2000   45.0% | t 45.000 | ETA 3m 4s | step 0.17s | KE 352.8535 | drift +0.88% | fluid 106.4991 | solid 246.3544
  Impulse FP iterations last/mean/max 11/12.04/13
Step  1000/2000   50.0% | t 50.000 | ETA 2m 48s | step 0.17s | KE 352.3343 | drift +0.73% | fluid 122.3702 | solid 229.9640
  Impulse FP iterations last/mean/max 12/12.04/13
Step  1100/2000   55.0% | t 55.000 | ETA 2m 31s | step 0.17s | KE 352.8917 | drift +0.89% | fluid 115.2438 | solid 237.6478
  Impulse FP iterations last/mean/max 12/12.04/13
Step  1200/2000   60.0% | t 60.000 | ETA 2m 15s | step 0.18s | KE 353.2076 | drift +0.98% | fluid 110.7286 | solid 242.4789
  Impulse FP iterations last/mean/max 12/12.03/13
Step  1300/2000   65.0% | t 65.000 | ETA 1m 58s | step 0.16s | KE 352.1711 | drift +0.68% | fluid 130.2007 | solid 221.9704
  Impulse FP iterations last/mean/max 11/12.01/13
Step  1400/2000   70.0% | t 70.000 | ETA 1m 40s | step 0.16s | KE 352.9684 | drift +0.91% | fluid 105.3213 | solid 247.6472
  Impulse FP iterations last/mean/max 12/12.00/13
Step  1500/2000   75.0% | t 75.000 | ETA 1m 23s | step 0.14s | KE 352.8184 | drift +0.87% | fluid 111.0622 | solid 241.7562
  Impulse FP iterations last/mean/max 12/11.99/13
Step  1600/2000   80.0% | t 80.000 | ETA 1m 6s | step 0.15s | KE 352.3168 | drift +0.72% | fluid 129.2675 | solid 223.0492
  Impulse FP iterations last/mean/max 12/11.98/13
Step  1700/2000   85.0% | t 85.000 | ETA 49s | step 0.14s | KE 353.3061 | drift +1.01% | fluid 107.6993 | solid 245.6068
  Impulse FP iterations last/mean/max 12/11.97/13
Step  1800/2000   90.0% | t 90.000 | ETA 32s | step 0.13s | KE 352.5542 | drift +0.79% | fluid 120.5395 | solid 232.0148
  Impulse FP iterations last/mean/max 12/11.96/13
Step  1900/2000   95.0% | t 95.000 | ETA 15s | step 0.13s | KE 352.5113 | drift +0.78% | fluid 117.3071 | solid 235.2042
  Impulse FP iterations last/mean/max 12/11.96/13
Solver finished successfully - good job!
Results saved successfully.

================== Run summary ==================
  Bodies:            2
  Triangles / nodes: 256 / 516
  Timesteps:         2000  (dt = 0.05)
  Simulated time:    0 -> 100
  First-step setup:  0.329 s
  Mean time/step:    0.1583 s  (excl. first step)
  Total wall time:   5m 16s
  Impulse FP iters last/mean/max: 12 / 11.964 / 13
  Approx impulse solves/step:     11.965
  Impulse start cache hits/direct: 1999 / 1
  Impulse global drift P/H:       2.425768e-8 / 1.446075e-2
  Impulse per-body max drift P/H: 4.078083e-8 / 2.875643e-3
  CPU cores:         256 available, 8 Rayon worker thread(s)
  Started:           2026-06-24 02:30:37
  Finished:          2026-06-24 02:35:54
  Output file:       /work/e643/e643/shared/multi_ellip/studies/departing_sphericity_sweep/runs/spheroid_prolate/homogeneous/spheroid_prolate_homogeneous_eps0p3_rho1_E0p5_sep8_run04_impulse_noproj/multiple_body_complete.dat
================================================
