
================ Simulation setup ================
  Run label:         /work/e643/e643/shared/multi_ellip/studies/two_body_paper_sweeps/runs/ellipsoid_1_0p8_0p6/ellipsoid_1_0p8_0p6_rho0p3_E4_sep8_run03_impulse_noproj/
  Started:           2026-06-24 01:58:11
  Input file:        /work/e643/e643/shared/multi_ellip/studies/two_body_paper_sweeps/runs/ellipsoid_1_0p8_0p6/ellipsoid_1_0p8_0p6_rho0p3_E4_sep8_run03_impulse_noproj/input.txt
  Output file:       /work/e643/e643/shared/multi_ellip/studies/two_body_paper_sweeps/runs/ellipsoid_1_0p8_0p6/ellipsoid_1_0p8_0p6_rho0p3_E4_sep8_run03_impulse_noproj/multiple_body_complete.dat
  Bodies:            2
  Fluid density:     1
  Mesh:              ndiv 2 -> 256 triangles / 516 nodes
  Simulated time:    0 -> 100  (dt = 0.05, ~2000 steps)
  Output cadence:    every 1 step(s)
  Output rows:       ~2001
  Progress cadence:  every 100 step(s)
  CPU cores:         256 available, 8 Rayon worker thread(s)
  Strong coupling:   disabled
  Impulse scheme:    enabled
  Hamiltonian step:  disabled
  Hamiltonian midpt: disabled
  Variational step:  disabled
  Energy projection: disabled
  Projection particular metric: Euclidean
  Fluid KE gradient: disabled  (eps = 0.001, scale = 1, linear = 1, angular = 1)
  Fluid KE discrete gradient: disabled
  Impulse pair metric correction: disabled  (mode = pair discrete-gradient, cutoff = all pairs, inner/outer = 0/0, eps = 0.001, linear scale = 1, angular scale = 0)
  Impulse metric correction: disabled  (internal load constraint = disabled)
  Impulse variational defect probe: disabled
  Impulse quadratic pressure: disabled  (scale = 1)
  Added-mass stab:   disabled
  Exact BEM geometry: disabled
  Exact singular BEM: disabled
  Legacy singular SLP diagnostic: disabled
  Phi-dot blend:     0 (off)

  Solver guidance:
    - Strong coupling: use for stiff close-coupled runs; slower but more implicit.
    - Impulse scheme: use when impulse/momentum conservation or KE drift is the focus. Recommended.
    - Added-mass stab: use for higher mesh counts (ndiv > 3) to preserve stability - deprecated.
================================================
Solver starting - good luck!

Initial state:
  Body  1
    density:          0.300000
    shape axes ratio: (1.000000, 0.800000, 0.600000)
    initial KE ratio: 4.000000
    position:         (-4.000000, 0.000000, 0.000000)
    velocity:         (1.690292, 0.826660, -1.067517)
    angular velocity: (1.500003, 4.599212, 4.009446)
    orientation:      (w=0.353663, i=0.774049, j=-0.425669, k=-0.307534)
  Body  2
    density:          0.300000
    shape axes ratio: (1.000000, 0.800000, 0.600000)
    initial KE ratio: 4.000000
    position:         (4.000000, 0.000000, 0.000000)
    velocity:         (1.699042, 0.830939, -1.073042)
    angular velocity: (-2.987914, -1.939733, -5.175734)
    orientation:      (w=0.040449, i=0.586111, j=0.421229, k=0.690944)

Preparing first step: implicit scheme, no bootstrap passes required.
First step may take longer than later steps.

First step completed in 0.306 s.

Step   100/2000    5.0% | t 5.000 | ETA 6m 7s | step 0.23s | KE 43.9824 | drift -2.56% | fluid 18.2103 | solid 25.7721
  Impulse FP iterations last/mean/max 15/14.08/15
Step   200/2000   10.0% | t 10.000 | ETA 5m 54s | step 0.21s | KE 43.4202 | drift -3.81% | fluid 17.0591 | solid 26.3611
  Impulse FP iterations last/mean/max 14/14.03/15
Step   300/2000   15.0% | t 15.000 | ETA 5m 37s | step 0.20s | KE 43.2244 | drift -4.24% | fluid 18.7859 | solid 24.4385
  Impulse FP iterations last/mean/max 14/14.00/15
Step   400/2000   20.0% | t 20.000 | ETA 5m 17s | step 0.20s | KE 43.3686 | drift -3.92% | fluid 17.5022 | solid 25.8664
  Impulse FP iterations last/mean/max 14/13.96/15
Step   500/2000   25.0% | t 25.000 | ETA 4m 58s | step 0.19s | KE 43.4161 | drift -3.82% | fluid 17.1243 | solid 26.2918
  Impulse FP iterations last/mean/max 14/13.96/15
Step   600/2000   30.0% | t 30.000 | ETA 4m 33s | step 0.18s | KE 43.4558 | drift -3.73% | fluid 17.6102 | solid 25.8456
  Impulse FP iterations last/mean/max 14/13.95/16
Step   700/2000   35.0% | t 35.000 | ETA 4m 11s | step 0.19s | KE 43.3959 | drift -3.86% | fluid 17.5004 | solid 25.8955
  Impulse FP iterations last/mean/max 14/13.94/16
Step   800/2000   40.0% | t 40.000 | ETA 3m 52s | step 0.20s | KE 43.5096 | drift -3.61% | fluid 18.1497 | solid 25.3599
  Impulse FP iterations last/mean/max 13/13.94/16
Step   900/2000   45.0% | t 45.000 | ETA 3m 33s | step 0.18s | KE 43.5150 | drift -3.60% | fluid 17.6703 | solid 25.8447
  Impulse FP iterations last/mean/max 13/13.94/16
Step  1000/2000   50.0% | t 50.000 | ETA 3m 15s | step 0.20s | KE 43.4354 | drift -3.77% | fluid 17.7228 | solid 25.7126
  Impulse FP iterations last/mean/max 14/13.95/16
Step  1100/2000   55.0% | t 55.000 | ETA 2m 56s | step 0.19s | KE 43.4858 | drift -3.66% | fluid 17.3701 | solid 26.1157
  Impulse FP iterations last/mean/max 13/13.94/16
Step  1200/2000   60.0% | t 60.000 | ETA 2m 37s | step 0.17s | KE 43.5380 | drift -3.55% | fluid 17.3436 | solid 26.1943
  Impulse FP iterations last/mean/max 12/13.94/16
Step  1300/2000   65.0% | t 65.000 | ETA 2m 17s | step 0.18s | KE 43.5405 | drift -3.54% | fluid 17.7764 | solid 25.7640
  Impulse FP iterations last/mean/max 13/13.93/16
Step  1400/2000   70.0% | t 70.000 | ETA 1m 58s | step 0.19s | KE 43.5449 | drift -3.53% | fluid 17.5565 | solid 25.9883
  Impulse FP iterations last/mean/max 14/13.92/16
Step  1500/2000   75.0% | t 75.000 | ETA 1m 38s | step 0.20s | KE 43.5217 | drift -3.58% | fluid 17.4481 | solid 26.0736
  Impulse FP iterations last/mean/max 14/13.92/16
Step  1600/2000   80.0% | t 80.000 | ETA 1m 18s | step 0.21s | KE 43.5328 | drift -3.56% | fluid 17.1337 | solid 26.3991
  Impulse FP iterations last/mean/max 14/13.93/16
Step  1700/2000   85.0% | t 85.000 | ETA 59s | step 0.20s | KE 43.4975 | drift -3.64% | fluid 17.4788 | solid 26.0188
  Impulse FP iterations last/mean/max 14/13.93/16
Step  1800/2000   90.0% | t 90.000 | ETA 39s | step 0.21s | KE 43.5325 | drift -3.56% | fluid 17.3193 | solid 26.2132
  Impulse FP iterations last/mean/max 14/13.94/16
Step  1900/2000   95.0% | t 95.000 | ETA 19s | step 0.21s | KE 43.5424 | drift -3.54% | fluid 17.1250 | solid 26.4174
  Impulse FP iterations last/mean/max 14/13.94/16
Solver finished successfully - good job!
Results saved successfully.

================== Run summary ==================
  Bodies:            2
  Triangles / nodes: 256 / 516
  Timesteps:         2000  (dt = 0.05)
  Simulated time:    0 -> 100
  First-step setup:  0.306 s
  Mean time/step:    0.1981 s  (excl. first step)
  Total wall time:   6m 36s
  Impulse FP iters last/mean/max: 14 / 13.929 / 16
  Approx impulse solves/step:     13.930
  Impulse start cache hits/direct: 1999 / 1
  Impulse global drift P/H:       3.346449e-8 / 3.378966e-2
  Impulse per-body max drift P/H: 6.600337e-8 / 1.948590e-2
  CPU cores:         256 available, 8 Rayon worker thread(s)
  Started:           2026-06-24 01:58:11
  Finished:          2026-06-24 02:04:48
  Output file:       /work/e643/e643/shared/multi_ellip/studies/two_body_paper_sweeps/runs/ellipsoid_1_0p8_0p6/ellipsoid_1_0p8_0p6_rho0p3_E4_sep8_run03_impulse_noproj/multiple_body_complete.dat
================================================
