
================ Simulation setup ================
  Run label:         /work/e643/e643/shared/multi_ellip/studies/two_body_paper_sweeps/runs/ellipsoid_1_0p8_0p6/ellipsoid_1_0p8_0p6_rho0p03_E11_sep8_run01_impulse_noproj/
  Started:           2026-06-22 20:15:22
  Input file:        /work/e643/e643/shared/multi_ellip/studies/two_body_paper_sweeps/runs/ellipsoid_1_0p8_0p6/ellipsoid_1_0p8_0p6_rho0p03_E11_sep8_run01_impulse_noproj/input.txt
  Output file:       /work/e643/e643/shared/multi_ellip/studies/two_body_paper_sweeps/runs/ellipsoid_1_0p8_0p6/ellipsoid_1_0p8_0p6_rho0p03_E11_sep8_run01_impulse_noproj/multiple_body_complete.dat
  Bodies:            2
  Fluid density:     1
  Mesh:              ndiv 2 -> 256 triangles / 516 nodes
  Simulated time:    0 -> 100  (dt = 0.05, ~2000 steps)
  Output cadence:    every 1 step(s)
  Output rows:       ~2001
  Progress cadence:  every 100 step(s)
  CPU cores:         256 available, 8 Rayon worker thread(s)
  Strong coupling:   disabled
  Impulse scheme:    enabled
  Hamiltonian step:  disabled
  Hamiltonian midpt: disabled
  Variational step:  disabled
  Energy projection: disabled
  Projection particular metric: Euclidean
  Fluid KE gradient: disabled  (eps = 0.001, scale = 1, linear = 1, angular = 1)
  Fluid KE discrete gradient: disabled
  Impulse pair metric correction: disabled  (mode = pair discrete-gradient, cutoff = all pairs, inner/outer = 0/0, eps = 0.001, linear scale = 1, angular scale = 0)
  Impulse metric correction: disabled  (internal load constraint = disabled)
  Impulse variational defect probe: disabled
  Impulse quadratic pressure: disabled  (scale = 1)
  Added-mass stab:   disabled
  Exact BEM geometry: disabled
  Exact singular BEM: disabled
  Legacy singular SLP diagnostic: disabled
  Phi-dot blend:     0 (off)

  Solver guidance:
    - Strong coupling: use for stiff close-coupled runs; slower but more implicit.
    - Impulse scheme: use when impulse/momentum conservation or KE drift is the focus. Recommended.
    - Added-mass stab: use for higher mesh counts (ndiv > 3) to preserve stability - deprecated.
================================================
Solver starting - good luck!

Initial state:
  Body  1
    density:          0.030000
    shape axes ratio: (1.000000, 0.800000, 0.600000)
    initial KE ratio: 11.000000
    position:         (-4.000000, 0.000000, 0.000000)
    velocity:         (0.501774, -1.014461, -0.569589)
    angular velocity: (-3.771016, 2.326243, 4.454935)
    orientation:      (w=0.447214, i=0.894427, j=0.000000, k=0.000000)
  Body  2
    density:          0.030000
    shape axes ratio: (1.000000, 0.800000, 0.600000)
    initial KE ratio: 11.000000
    position:         (4.000000, 0.000000, 0.000000)
    velocity:         (0.539024, -1.089773, -0.611875)
    angular velocity: (-1.710510, -1.208216, -5.923916)
    orientation:      (w=0.707107, i=0.000000, j=0.707107, k=0.000000)

Preparing first step: implicit scheme, no bootstrap passes required.
First step may take longer than later steps.

First step completed in 0.537 s.

Step   100/2000    5.0% | t 5.000 | ETA 11m 26s | step 0.39s | KE 10.9168 | drift -0.61% | fluid 8.7517 | solid 2.1651
  Impulse FP iterations last/mean/max 30/29.28/30
Step   200/2000   10.0% | t 10.000 | ETA 11m 10s | step 0.41s | KE 10.9036 | drift -0.73% | fluid 8.9529 | solid 1.9507
  Impulse FP iterations last/mean/max 30/29.05/30
Step   300/2000   15.0% | t 15.000 | ETA 10m 41s | step 0.35s | KE 10.9058 | drift -0.71% | fluid 8.7226 | solid 2.1832
  Impulse FP iterations last/mean/max 27/29.12/30
Step   400/2000   20.0% | t 20.000 | ETA 10m 6s | step 0.36s | KE 10.9466 | drift -0.33% | fluid 9.1084 | solid 1.8382
  Impulse FP iterations last/mean/max 28/29.03/30
Step   500/2000   25.0% | t 25.000 | ETA 9m 27s | step 0.38s | KE 10.9924 | drift +0.08% | fluid 9.2378 | solid 1.7545
  Impulse FP iterations last/mean/max 28/28.90/30
Step   600/2000   30.0% | t 30.000 | ETA 8m 51s | step 0.41s | KE 10.9580 | drift -0.23% | fluid 9.0681 | solid 1.8899
  Impulse FP iterations last/mean/max 30/28.91/30
Step   700/2000   35.0% | t 35.000 | ETA 8m 13s | step 0.39s | KE 11.0121 | drift +0.26% | fluid 9.3923 | solid 1.6198
  Impulse FP iterations last/mean/max 29/28.93/30
Step   800/2000   40.0% | t 40.000 | ETA 7m 35s | step 0.41s | KE 11.0179 | drift +0.32% | fluid 9.6497 | solid 1.3682
  Impulse FP iterations last/mean/max 30/28.95/30
Step   900/2000   45.0% | t 45.000 | ETA 6m 57s | step 0.41s | KE 10.9718 | drift -0.10% | fluid 9.3524 | solid 1.6194
  Impulse FP iterations last/mean/max 30/28.95/30
Step  1000/2000   50.0% | t 50.000 | ETA 6m 19s | step 0.37s | KE 10.9935 | drift +0.09% | fluid 8.8133 | solid 2.1802
  Impulse FP iterations last/mean/max 29/28.97/30
Step  1100/2000   55.0% | t 55.000 | ETA 5m 40s | step 0.39s | KE 10.9358 | drift -0.43% | fluid 8.8894 | solid 2.0464
  Impulse FP iterations last/mean/max 30/28.98/30
Step  1200/2000   60.0% | t 60.000 | ETA 5m 2s | step 0.37s | KE 10.9619 | drift -0.19% | fluid 9.1808 | solid 1.7811
  Impulse FP iterations last/mean/max 28/28.98/30
Step  1300/2000   65.0% | t 65.000 | ETA 4m 24s | step 0.40s | KE 10.9147 | drift -0.62% | fluid 9.3337 | solid 1.5809
  Impulse FP iterations last/mean/max 30/28.97/30
Step  1400/2000   70.0% | t 70.000 | ETA 3m 46s | step 0.33s | KE 10.9812 | drift -0.02% | fluid 9.4434 | solid 1.5378
  Impulse FP iterations last/mean/max 25/28.97/30
Step  1500/2000   75.0% | t 75.000 | ETA 3m 8s | step 0.40s | KE 10.9113 | drift -0.65% | fluid 9.5459 | solid 1.3654
  Impulse FP iterations last/mean/max 30/28.97/30
Step  1600/2000   80.0% | t 80.000 | ETA 2m 30s | step 0.36s | KE 10.9154 | drift -0.62% | fluid 8.6856 | solid 2.2298
  Impulse FP iterations last/mean/max 28/28.96/30
Step  1700/2000   85.0% | t 85.000 | ETA 1m 53s | step 0.39s | KE 10.9533 | drift -0.27% | fluid 8.9213 | solid 2.0320
  Impulse FP iterations last/mean/max 30/28.97/30
Step  1800/2000   90.0% | t 90.000 | ETA 1m 15s | step 0.34s | KE 10.9463 | drift -0.34% | fluid 9.4201 | solid 1.5262
  Impulse FP iterations last/mean/max 26/28.98/30
Step  1900/2000   95.0% | t 95.000 | ETA 37s | step 0.33s | KE 10.9033 | drift -0.73% | fluid 8.6311 | solid 2.2722
  Impulse FP iterations last/mean/max 30/28.97/30
Solver finished successfully - good job!
Results saved successfully.

================== Run summary ==================
  Bodies:            2
  Triangles / nodes: 256 / 516
  Timesteps:         2000  (dt = 0.05)
  Simulated time:    0 -> 100
  First-step setup:  0.537 s
  Mean time/step:    0.3717 s  (excl. first step)
  Total wall time:   12m 23s
  Impulse FP iters last/mean/max: 29 / 28.957 / 30
  Approx impulse solves/step:     28.957
  Impulse start cache hits/direct: 1999 / 1
  Impulse global drift P/H:       3.149343e-7 / 3.398279e-3
  Impulse per-body max drift P/H: 4.455884e-7 / 1.318116e-3
  CPU cores:         256 available, 8 Rayon worker thread(s)
  Started:           2026-06-22 20:15:22
  Finished:          2026-06-22 20:27:49
  Output file:       /work/e643/e643/shared/multi_ellip/studies/two_body_paper_sweeps/runs/ellipsoid_1_0p8_0p6/ellipsoid_1_0p8_0p6_rho0p03_E11_sep8_run01_impulse_noproj/multiple_body_complete.dat
================================================
