
================ Simulation setup ================
  Run label:         /work/e643/e643/shared/multi_ellip/studies/departing_sphericity_sweep/runs/spheroid_prolate/homogeneous/spheroid_prolate_homogeneous_eps0p03_rho1_E0p5_sep8_run02_impulse_noproj/
  Started:           2026-06-24 02:26:40
  Input file:        /work/e643/e643/shared/multi_ellip/studies/departing_sphericity_sweep/runs/spheroid_prolate/homogeneous/spheroid_prolate_homogeneous_eps0p03_rho1_E0p5_sep8_run02_impulse_noproj/input.txt
  Output file:       /work/e643/e643/shared/multi_ellip/studies/departing_sphericity_sweep/runs/spheroid_prolate/homogeneous/spheroid_prolate_homogeneous_eps0p03_rho1_E0p5_sep8_run02_impulse_noproj/multiple_body_complete.dat
  Bodies:            2
  Fluid density:     1
  Mesh:              ndiv 2 -> 256 triangles / 516 nodes
  Simulated time:    0 -> 100  (dt = 0.05, ~2000 steps)
  Output cadence:    every 1 step(s)
  Output rows:       ~2001
  Progress cadence:  every 100 step(s)
  CPU cores:         256 available, 8 Rayon worker thread(s)
  Strong coupling:   disabled
  Impulse scheme:    enabled
  Hamiltonian step:  disabled
  Hamiltonian midpt: disabled
  Variational step:  disabled
  Energy projection: disabled
  Projection particular metric: Euclidean
  Fluid KE gradient: disabled  (eps = 0.001, scale = 1, linear = 1, angular = 1)
  Fluid KE discrete gradient: disabled
  Impulse pair metric correction: disabled  (mode = pair discrete-gradient, cutoff = all pairs, inner/outer = 0/0, eps = 0.001, linear scale = 1, angular scale = 0)
  Impulse metric correction: disabled  (internal load constraint = disabled)
  Impulse variational defect probe: disabled
  Impulse quadratic pressure: disabled  (scale = 1)
  Added-mass stab:   disabled
  Exact BEM geometry: disabled
  Exact singular BEM: disabled
  Legacy singular SLP diagnostic: disabled
  Phi-dot blend:     0 (off)

  Solver guidance:
    - Strong coupling: use for stiff close-coupled runs; slower but more implicit.
    - Impulse scheme: use when impulse/momentum conservation or KE drift is the focus. Recommended.
    - Added-mass stab: use for higher mesh counts (ndiv > 3) to preserve stability - deprecated.
================================================
Solver starting - good luck!

Initial state:
  Body  1
    density:          1.000000
    shape axes ratio: (1.000000, 0.915142, 0.915142)
    initial KE ratio: 0.500000
    position:         (-4.000000, 0.000000, 0.000000)
    velocity:         (-4.733023, 2.570820, -1.884520)
    angular velocity: (1.146400, -1.722374, 5.932758)
    orientation:      (w=-0.416706, i=0.701926, j=0.305232, k=-0.490396)
  Body  2
    density:          1.000000
    shape axes ratio: (1.000000, 0.915142, 0.915142)
    initial KE ratio: 0.500000
    position:         (4.000000, 0.000000, 0.000000)
    velocity:         (-4.599816, 2.498467, -1.831482)
    angular velocity: (5.100268, 2.276254, -2.878254)
    orientation:      (w=-0.539923, i=-0.598504, j=-0.426191, k=-0.410655)

Preparing first step: implicit scheme, no bootstrap passes required.
First step may take longer than later steps.

First step completed in 0.334 s.

Step   100/2000    5.0% | t 5.000 | ETA 3m 38s | step 0.12s | KE 280.2041 | drift +1.92% | fluid 75.7760 | solid 204.4281
  Impulse FP iterations last/mean/max 8/8.12/9
Step   200/2000   10.0% | t 10.000 | ETA 3m 26s | step 0.12s | KE 286.0522 | drift +4.05% | fluid 73.6748 | solid 212.3774
  Impulse FP iterations last/mean/max 8/8.04/9
Step   300/2000   15.0% | t 15.000 | ETA 3m 14s | step 0.12s | KE 291.5587 | drift +6.05% | fluid 74.3250 | solid 217.2336
  Impulse FP iterations last/mean/max 8/8.03/9
Step   400/2000   20.0% | t 20.000 | ETA 3m 2s | step 0.12s | KE 296.5526 | drift +7.87% | fluid 74.3244 | solid 222.2282
  Impulse FP iterations last/mean/max 8/7.99/9
Step   500/2000   25.0% | t 25.000 | ETA 2m 51s | step 0.12s | KE 300.8230 | drift +9.42% | fluid 74.6008 | solid 226.2222
  Impulse FP iterations last/mean/max 8/7.97/9
Step   600/2000   30.0% | t 30.000 | ETA 2m 39s | step 0.11s | KE 304.6757 | drift +10.82% | fluid 73.1765 | solid 231.4992
  Impulse FP iterations last/mean/max 8/7.94/9
Step   700/2000   35.0% | t 35.000 | ETA 2m 27s | step 0.12s | KE 307.6849 | drift +11.91% | fluid 75.6569 | solid 232.0281
  Impulse FP iterations last/mean/max 8/7.92/9
Step   800/2000   40.0% | t 40.000 | ETA 2m 15s | step 0.11s | KE 310.6081 | drift +12.98% | fluid 74.9766 | solid 235.6314
  Impulse FP iterations last/mean/max 8/7.89/9
Step   900/2000   45.0% | t 45.000 | ETA 2m 4s | step 0.10s | KE 313.0384 | drift +13.86% | fluid 75.7824 | solid 237.2560
  Impulse FP iterations last/mean/max 7/7.87/9
Step  1000/2000   50.0% | t 50.000 | ETA 1m 52s | step 0.11s | KE 315.1349 | drift +14.62% | fluid 74.1488 | solid 240.9862
  Impulse FP iterations last/mean/max 8/7.84/9
Step  1100/2000   55.0% | t 55.000 | ETA 1m 40s | step 0.10s | KE 317.1058 | drift +15.34% | fluid 74.1105 | solid 242.9952
  Impulse FP iterations last/mean/max 8/7.82/9
Step  1200/2000   60.0% | t 60.000 | ETA 1m 27s | step 0.10s | KE 318.4768 | drift +15.84% | fluid 75.0395 | solid 243.4373
  Impulse FP iterations last/mean/max 8/7.79/9
Step  1300/2000   65.0% | t 65.000 | ETA 1m 16s | step 0.09s | KE 319.7932 | drift +16.32% | fluid 76.2941 | solid 243.4991
  Impulse FP iterations last/mean/max 7/7.77/9
Step  1400/2000   70.0% | t 70.000 | ETA 1m 4s | step 0.11s | KE 321.1272 | drift +16.80% | fluid 75.7341 | solid 245.3931
  Impulse FP iterations last/mean/max 8/7.76/9
Step  1500/2000   75.0% | t 75.000 | ETA 54s | step 0.10s | KE 322.2578 | drift +17.22% | fluid 75.9557 | solid 246.3021
  Impulse FP iterations last/mean/max 7/7.74/9
Step  1600/2000   80.0% | t 80.000 | ETA 43s | step 0.10s | KE 323.3007 | drift +17.59% | fluid 74.9895 | solid 248.3112
  Impulse FP iterations last/mean/max 7/7.73/9
Step  1700/2000   85.0% | t 85.000 | ETA 32s | step 0.09s | KE 324.1531 | drift +17.90% | fluid 75.5894 | solid 248.5637
  Impulse FP iterations last/mean/max 7/7.71/9
Step  1800/2000   90.0% | t 90.000 | ETA 21s | step 0.10s | KE 324.8924 | drift +18.17% | fluid 74.7030 | solid 250.1894
  Impulse FP iterations last/mean/max 8/7.70/9
Step  1900/2000   95.0% | t 95.000 | ETA 10s | step 0.10s | KE 325.4299 | drift +18.37% | fluid 76.1079 | solid 249.3220
  Impulse FP iterations last/mean/max 7/7.69/9
Solver finished successfully - good job!
Results saved successfully.

================== Run summary ==================
  Bodies:            2
  Triangles / nodes: 256 / 516
  Timesteps:         2000  (dt = 0.05)
  Simulated time:    0 -> 100
  First-step setup:  0.334 s
  Mean time/step:    0.1068 s  (excl. first step)
  Total wall time:   3m 33s
  Impulse FP iters last/mean/max: 8 / 7.683 / 9
  Approx impulse solves/step:     7.683
  Impulse start cache hits/direct: 1999 / 1
  Impulse global drift P/H:       1.747026e-8 / 1.653693e-2
  Impulse per-body max drift P/H: 4.609740e-8 / 1.896521e-3
  CPU cores:         256 available, 8 Rayon worker thread(s)
  Started:           2026-06-24 02:26:40
  Finished:          2026-06-24 02:30:14
  Output file:       /work/e643/e643/shared/multi_ellip/studies/departing_sphericity_sweep/runs/spheroid_prolate/homogeneous/spheroid_prolate_homogeneous_eps0p03_rho1_E0p5_sep8_run02_impulse_noproj/multiple_body_complete.dat
================================================
