
================ Simulation setup ================
  Run label:         /work/e643/e643/shared/multi_ellip/studies/departing_sphericity_sweep/runs/spheroid_oblate/homogeneous/spheroid_oblate_homogeneous_eps1_rho1_E0p5_sep8_run01_impulse_noproj/
  Started:           2026-06-24 02:30:09
  Input file:        /work/e643/e643/shared/multi_ellip/studies/departing_sphericity_sweep/runs/spheroid_oblate/homogeneous/spheroid_oblate_homogeneous_eps1_rho1_E0p5_sep8_run01_impulse_noproj/input.txt
  Output file:       /work/e643/e643/shared/multi_ellip/studies/departing_sphericity_sweep/runs/spheroid_oblate/homogeneous/spheroid_oblate_homogeneous_eps1_rho1_E0p5_sep8_run01_impulse_noproj/multiple_body_complete.dat
  Bodies:            2
  Fluid density:     1
  Mesh:              ndiv 2 -> 256 triangles / 516 nodes
  Simulated time:    0 -> 100  (dt = 0.05, ~2000 steps)
  Output cadence:    every 1 step(s)
  Output rows:       ~2001
  Progress cadence:  every 100 step(s)
  CPU cores:         256 available, 8 Rayon worker thread(s)
  Strong coupling:   disabled
  Impulse scheme:    enabled
  Hamiltonian step:  disabled
  Hamiltonian midpt: disabled
  Variational step:  disabled
  Energy projection: disabled
  Projection particular metric: Euclidean
  Fluid KE gradient: disabled  (eps = 0.001, scale = 1, linear = 1, angular = 1)
  Fluid KE discrete gradient: disabled
  Impulse pair metric correction: disabled  (mode = pair discrete-gradient, cutoff = all pairs, inner/outer = 0/0, eps = 0.001, linear scale = 1, angular scale = 0)
  Impulse metric correction: disabled  (internal load constraint = disabled)
  Impulse variational defect probe: disabled
  Impulse quadratic pressure: disabled  (scale = 1)
  Added-mass stab:   disabled
  Exact BEM geometry: disabled
  Exact singular BEM: disabled
  Legacy singular SLP diagnostic: disabled
  Phi-dot blend:     0 (off)

  Solver guidance:
    - Strong coupling: use for stiff close-coupled runs; slower but more implicit.
    - Impulse scheme: use when impulse/momentum conservation or KE drift is the focus. Recommended.
    - Added-mass stab: use for higher mesh counts (ndiv > 3) to preserve stability - deprecated.
================================================
Solver starting - good luck!

Initial state:
  Body  1
    density:          1.000000
    shape axes ratio: (1.000000, 1.000000, 0.125000)
    initial KE ratio: 0.500000
    position:         (-4.000000, 0.000000, 0.000000)
    velocity:         (2.238803, 7.577571, 7.636644)
    angular velocity: (-1.824411, 0.463544, -5.994587)
    orientation:      (w=0.106040, i=0.436916, j=0.094730, k=-0.888192)
  Body  2
    density:          1.000000
    shape axes ratio: (1.000000, 1.000000, 0.125000)
    initial KE ratio: 0.500000
    position:         (4.000000, 0.000000, 0.000000)
    velocity:         (1.646621, 5.573241, 5.616689)
    angular velocity: (0.075982, 6.223472, 0.860837)
    orientation:      (w=0.026996, i=0.671564, j=0.188073, k=0.716172)

Preparing first step: implicit scheme, no bootstrap passes required.
First step may take longer than later steps.

First step completed in 0.463 s.

Step   100/2000    5.0% | t 5.000 | ETA 8m 21s | step 0.25s | KE 1092.5029 | drift -0.01% | fluid 664.9409 | solid 427.5620
  Impulse FP iterations last/mean/max 18/17.77/30
Step   200/2000   10.0% | t 10.000 | ETA 7m 51s | step 0.40s | KE 1089.0642 | drift -0.32% | fluid 746.2711 | solid 342.7931
  Impulse FP iterations last/mean/max 30/17.70/30
Step   300/2000   15.0% | t 15.000 | ETA 7m 22s | step 0.25s | KE 1090.5590 | drift -0.19% | fluid 714.4630 | solid 376.0960
  Impulse FP iterations last/mean/max 17/17.58/30
Step   400/2000   20.0% | t 20.000 | ETA 6m 54s | step 0.26s | KE 1094.1159 | drift +0.14% | fluid 612.4686 | solid 481.6472
  Impulse FP iterations last/mean/max 17/17.54/30
Step   500/2000   25.0% | t 25.000 | ETA 6m 29s | step 0.25s | KE 1095.9042 | drift +0.30% | fluid 526.3355 | solid 569.5687
  Impulse FP iterations last/mean/max 17/17.61/30
Step   600/2000   30.0% | t 30.000 | ETA 6m 3s | step 0.29s | KE 1096.3652 | drift +0.35% | fluid 474.9410 | solid 621.4242
  Impulse FP iterations last/mean/max 19/17.66/30
Step   700/2000   35.0% | t 35.000 | ETA 5m 37s | step 0.25s | KE 1095.8975 | drift +0.30% | fluid 452.8651 | solid 643.0324
  Impulse FP iterations last/mean/max 17/17.65/30
Step   800/2000   40.0% | t 40.000 | ETA 5m 11s | step 0.27s | KE 1094.4500 | drift +0.17% | fluid 456.3522 | solid 638.0979
  Impulse FP iterations last/mean/max 18/17.64/30
Step   900/2000   45.0% | t 45.000 | ETA 4m 42s | step 0.21s | KE 1092.4916 | drift -0.01% | fluid 470.8309 | solid 621.6608
  Impulse FP iterations last/mean/max 16/17.64/30
Step  1000/2000   50.0% | t 50.000 | ETA 4m 14s | step 0.20s | KE 1091.8016 | drift -0.07% | fluid 464.1528 | solid 627.6488
  Impulse FP iterations last/mean/max 16/17.64/30
Step  1100/2000   55.0% | t 55.000 | ETA 3m 43s | step 0.17s | KE 1093.3363 | drift +0.07% | fluid 423.1675 | solid 670.1688
  Impulse FP iterations last/mean/max 17/17.64/30
Step  1200/2000   60.0% | t 60.000 | ETA 3m 14s | step 0.16s | KE 1095.5609 | drift +0.27% | fluid 376.0201 | solid 719.5408
  Impulse FP iterations last/mean/max 16/17.66/30
Step  1300/2000   65.0% | t 65.000 | ETA 2m 46s | step 0.18s | KE 1097.2385 | drift +0.43% | fluid 352.8699 | solid 744.3686
  Impulse FP iterations last/mean/max 18/17.65/30
Step  1400/2000   70.0% | t 70.000 | ETA 2m 20s | step 0.19s | KE 1098.1901 | drift +0.51% | fluid 365.7422 | solid 732.4479
  Impulse FP iterations last/mean/max 18/17.65/30
Step  1500/2000   75.0% | t 75.000 | ETA 1m 54s | step 0.16s | KE 1098.1487 | drift +0.51% | fluid 423.1159 | solid 675.0327
  Impulse FP iterations last/mean/max 17/17.64/30
Step  1600/2000   80.0% | t 80.000 | ETA 1m 30s | step 0.17s | KE 1096.0811 | drift +0.32% | fluid 530.9762 | solid 565.1049
  Impulse FP iterations last/mean/max 18/17.63/30
Step  1700/2000   85.0% | t 85.000 | ETA 1m 6s | step 0.15s | KE 1092.2166 | drift -0.03% | fluid 647.2408 | solid 444.9758
  Impulse FP iterations last/mean/max 16/17.63/30
Step  1800/2000   90.0% | t 90.000 | ETA 43s | step 0.20s | KE 1091.6622 | drift -0.08% | fluid 676.5039 | solid 415.1583
  Impulse FP iterations last/mean/max 23/17.64/30
Step  1900/2000   95.0% | t 95.000 | ETA 21s | step 0.18s | KE 1093.8347 | drift +0.11% | fluid 624.8625 | solid 468.9722
  Impulse FP iterations last/mean/max 20/17.65/30
Solver finished successfully - good job!
Results saved successfully.

================== Run summary ==================
  Bodies:            2
  Triangles / nodes: 256 / 516
  Timesteps:         2000  (dt = 0.05)
  Simulated time:    0 -> 100
  First-step setup:  0.463 s
  Mean time/step:    0.2130 s  (excl. first step)
  Total wall time:   7m 6s
  Impulse FP iters last/mean/max: 16 / 17.642 / 30
  Approx impulse solves/step:     17.642
  Impulse start cache hits/direct: 1999 / 1
  Impulse global drift P/H:       8.111686e-10 / 3.411503e-3
  Impulse per-body max drift P/H: 1.095973e-9 / 1.868915e-3
  CPU cores:         256 available, 8 Rayon worker thread(s)
  Started:           2026-06-24 02:30:09
  Finished:          2026-06-24 02:37:16
  Output file:       /work/e643/e643/shared/multi_ellip/studies/departing_sphericity_sweep/runs/spheroid_oblate/homogeneous/spheroid_oblate_homogeneous_eps1_rho1_E0p5_sep8_run01_impulse_noproj/multiple_body_complete.dat
================================================
