
================ Simulation setup ================
  Run label:         /work/e643/e643/shared/multi_ellip/studies/two_body_paper_sweeps/runs/ellipsoid_1_0p8_0p6/ellipsoid_1_0p8_0p6_rho4_E0p2_sep3_run03_impulse_noproj/
  Started:           2026-06-24 01:24:54
  Input file:        /work/e643/e643/shared/multi_ellip/studies/two_body_paper_sweeps/runs/ellipsoid_1_0p8_0p6/ellipsoid_1_0p8_0p6_rho4_E0p2_sep3_run03_impulse_noproj/input.txt
  Output file:       /work/e643/e643/shared/multi_ellip/studies/two_body_paper_sweeps/runs/ellipsoid_1_0p8_0p6/ellipsoid_1_0p8_0p6_rho4_E0p2_sep3_run03_impulse_noproj/multiple_body_complete.dat
  Bodies:            2
  Fluid density:     1
  Mesh:              ndiv 2 -> 256 triangles / 516 nodes
  Simulated time:    0 -> 100  (dt = 0.05, ~2000 steps)
  Output cadence:    every 1 step(s)
  Output rows:       ~2001
  Progress cadence:  every 100 step(s)
  CPU cores:         256 available, 8 Rayon worker thread(s)
  Strong coupling:   disabled
  Impulse scheme:    enabled
  Hamiltonian step:  disabled
  Hamiltonian midpt: disabled
  Variational step:  disabled
  Energy projection: disabled
  Projection particular metric: Euclidean
  Fluid KE gradient: disabled  (eps = 0.001, scale = 1, linear = 1, angular = 1)
  Fluid KE discrete gradient: disabled
  Impulse pair metric correction: disabled  (mode = pair discrete-gradient, cutoff = all pairs, inner/outer = 0/0, eps = 0.001, linear scale = 1, angular scale = 0)
  Impulse metric correction: disabled  (internal load constraint = disabled)
  Impulse variational defect probe: disabled
  Impulse quadratic pressure: disabled  (scale = 1)
  Added-mass stab:   disabled
  Exact BEM geometry: disabled
  Exact singular BEM: disabled
  Legacy singular SLP diagnostic: disabled
  Phi-dot blend:     0 (off)

  Solver guidance:
    - Strong coupling: use for stiff close-coupled runs; slower but more implicit.
    - Impulse scheme: use when impulse/momentum conservation or KE drift is the focus. Recommended.
    - Added-mass stab: use for higher mesh counts (ndiv > 3) to preserve stability - deprecated.
================================================
Solver starting - good luck!

Initial state:
  Body  1
    density:          4.000000
    shape axes ratio: (1.000000, 0.800000, 0.600000)
    initial KE ratio: 0.200000
    position:         (-1.500000, 0.000000, 0.000000)
    velocity:         (-6.415328, -3.788327, 3.613403)
    angular velocity: (5.815241, -1.953373, -1.358573)
    orientation:      (w=0.505236, i=-0.218481, j=-0.379250, k=-0.743755)
  Body  2
    density:          4.000000
    shape axes ratio: (1.000000, 0.800000, 0.600000)
    initial KE ratio: 0.200000
    position:         (1.500000, 0.000000, 0.000000)
    velocity:         (-6.467285, -3.819008, 3.642667)
    angular velocity: (-5.778567, 1.531692, 1.934037)
    orientation:      (w=-0.474037, i=-0.250845, j=0.664396, k=-0.520523)

Preparing first step: implicit scheme, no bootstrap passes required.
First step may take longer than later steps.

First step completed in 0.245 s.

Step   100/2000    5.0% | t 5.000 | ETA 3m 52s | step 0.12s | KE 1954.9254 | drift +23.52% | fluid 176.3589 | solid 1778.5665
  Impulse FP iterations last/mean/max 9/9.00/10
Step   200/2000   10.0% | t 10.000 | ETA 3m 47s | step 0.13s | KE 2005.3308 | drift +26.70% | fluid 175.6037 | solid 1829.7271
  Impulse FP iterations last/mean/max 9/9.00/10
Step   300/2000   15.0% | t 15.000 | ETA 3m 36s | step 0.12s | KE 2054.5278 | drift +29.81% | fluid 189.1948 | solid 1865.3330
  Impulse FP iterations last/mean/max 9/8.98/10
Step   400/2000   20.0% | t 20.000 | ETA 3m 23s | step 0.13s | KE 2071.2470 | drift +30.87% | fluid 158.0416 | solid 1913.2053
  Impulse FP iterations last/mean/max 9/8.96/10
Step   500/2000   25.0% | t 25.000 | ETA 3m 10s | step 0.12s | KE 2069.9301 | drift +30.78% | fluid 178.2329 | solid 1891.6972
  Impulse FP iterations last/mean/max 9/8.95/10
Step   600/2000   30.0% | t 30.000 | ETA 2m 58s | step 0.12s | KE 2070.8127 | drift +30.84% | fluid 145.6166 | solid 1925.1961
  Impulse FP iterations last/mean/max 9/8.95/10
Step   700/2000   35.0% | t 35.000 | ETA 2m 45s | step 0.13s | KE 2067.5405 | drift +30.63% | fluid 151.8584 | solid 1915.6821
  Impulse FP iterations last/mean/max 9/8.95/10
Step   800/2000   40.0% | t 40.000 | ETA 2m 33s | step 0.13s | KE 2064.8386 | drift +30.46% | fluid 168.0580 | solid 1896.7806
  Impulse FP iterations last/mean/max 9/8.95/10
Step   900/2000   45.0% | t 45.000 | ETA 2m 20s | step 0.13s | KE 2066.3009 | drift +30.56% | fluid 157.6484 | solid 1908.6524
  Impulse FP iterations last/mean/max 9/8.94/10
Step  1000/2000   50.0% | t 50.000 | ETA 2m 7s | step 0.13s | KE 2067.6619 | drift +30.64% | fluid 148.4211 | solid 1919.2408
  Impulse FP iterations last/mean/max 9/8.94/10
Step  1100/2000   55.0% | t 55.000 | ETA 1m 54s | step 0.14s | KE 2064.6842 | drift +30.45% | fluid 186.7800 | solid 1877.9043
  Impulse FP iterations last/mean/max 9/8.93/10
Step  1200/2000   60.0% | t 60.000 | ETA 1m 41s | step 0.13s | KE 2067.3386 | drift +30.62% | fluid 155.9198 | solid 1911.4188
  Impulse FP iterations last/mean/max 9/8.93/10
Step  1300/2000   65.0% | t 65.000 | ETA 1m 29s | step 0.12s | KE 2067.2884 | drift +30.62% | fluid 150.0660 | solid 1917.2224
  Impulse FP iterations last/mean/max 8/8.92/10
Step  1400/2000   70.0% | t 70.000 | ETA 1m 16s | step 0.12s | KE 2066.3196 | drift +30.56% | fluid 157.9731 | solid 1908.3465
  Impulse FP iterations last/mean/max 9/8.92/10
Step  1500/2000   75.0% | t 75.000 | ETA 1m 3s | step 0.12s | KE 2067.5582 | drift +30.63% | fluid 138.8600 | solid 1928.6982
  Impulse FP iterations last/mean/max 8/8.91/10
Step  1600/2000   80.0% | t 80.000 | ETA 50s | step 0.12s | KE 2066.7487 | drift +30.58% | fluid 167.9293 | solid 1898.8194
  Impulse FP iterations last/mean/max 9/8.92/10
Step  1700/2000   85.0% | t 85.000 | ETA 37s | step 0.11s | KE 2066.2522 | drift +30.55% | fluid 181.8396 | solid 1884.4126
  Impulse FP iterations last/mean/max 9/8.91/10
Step  1800/2000   90.0% | t 90.000 | ETA 25s | step 0.11s | KE 2066.2888 | drift +30.55% | fluid 165.5268 | solid 1900.7620
  Impulse FP iterations last/mean/max 9/8.91/10
Step  1900/2000   95.0% | t 95.000 | ETA 12s | step 0.10s | KE 2066.9320 | drift +30.60% | fluid 149.6002 | solid 1917.3318
  Impulse FP iterations last/mean/max 9/8.91/10
Solver finished successfully - good job!
Results saved successfully.

================== Run summary ==================
  Bodies:            2
  Triangles / nodes: 256 / 516
  Timesteps:         2000  (dt = 0.05)
  Simulated time:    0 -> 100
  First-step setup:  0.245 s
  Mean time/step:    0.1234 s  (excl. first step)
  Total wall time:   4m 6s
  Impulse FP iters last/mean/max: 9 / 8.915 / 10
  Approx impulse solves/step:     8.915
  Impulse start cache hits/direct: 1999 / 1
  Impulse global drift P/H:       7.330037e-9 / 2.461342e-1
  Impulse per-body max drift P/H: 1.032914e-8 / 3.916339e-2
  CPU cores:         256 available, 8 Rayon worker thread(s)
  Started:           2026-06-24 01:24:54
  Finished:          2026-06-24 01:29:01
  Output file:       /work/e643/e643/shared/multi_ellip/studies/two_body_paper_sweeps/runs/ellipsoid_1_0p8_0p6/ellipsoid_1_0p8_0p6_rho4_E0p2_sep3_run03_impulse_noproj/multiple_body_complete.dat
================================================
