
================ Simulation setup ================
  Run label:         /work/e643/e643/shared/multi_ellip/studies/two_body_paper_sweeps/runs/spheroid_1_0p7_0p7/spheroid_1_0p7_0p7_rho0p3_E0p55_sep11_run01_impulse_noproj/
  Started:           2026-06-22 19:39:27
  Input file:        /work/e643/e643/shared/multi_ellip/studies/two_body_paper_sweeps/runs/spheroid_1_0p7_0p7/spheroid_1_0p7_0p7_rho0p3_E0p55_sep11_run01_impulse_noproj/input.txt
  Output file:       /work/e643/e643/shared/multi_ellip/studies/two_body_paper_sweeps/runs/spheroid_1_0p7_0p7/spheroid_1_0p7_0p7_rho0p3_E0p55_sep11_run01_impulse_noproj/multiple_body_complete.dat
  Bodies:            2
  Fluid density:     1
  Mesh:              ndiv 2 -> 256 triangles / 516 nodes
  Simulated time:    0 -> 100  (dt = 0.05, ~2000 steps)
  Output cadence:    every 1 step(s)
  Output rows:       ~2001
  Progress cadence:  every 100 step(s)
  CPU cores:         256 available, 8 Rayon worker thread(s)
  Strong coupling:   disabled
  Impulse scheme:    enabled
  Hamiltonian step:  disabled
  Hamiltonian midpt: disabled
  Variational step:  disabled
  Energy projection: disabled
  Projection particular metric: Euclidean
  Fluid KE gradient: disabled  (eps = 0.001, scale = 1, linear = 1, angular = 1)
  Fluid KE discrete gradient: disabled
  Impulse pair metric correction: disabled  (mode = pair discrete-gradient, cutoff = all pairs, inner/outer = 0/0, eps = 0.001, linear scale = 1, angular scale = 0)
  Impulse metric correction: disabled  (internal load constraint = disabled)
  Impulse variational defect probe: disabled
  Impulse quadratic pressure: disabled  (scale = 1)
  Added-mass stab:   disabled
  Exact BEM geometry: disabled
  Exact singular BEM: disabled
  Legacy singular SLP diagnostic: disabled
  Phi-dot blend:     0 (off)

  Solver guidance:
    - Strong coupling: use for stiff close-coupled runs; slower but more implicit.
    - Impulse scheme: use when impulse/momentum conservation or KE drift is the focus. Recommended.
    - Added-mass stab: use for higher mesh counts (ndiv > 3) to preserve stability - deprecated.
================================================
Solver starting - good luck!

Initial state:
  Body  1
    density:          0.300000
    shape axes ratio: (1.000000, 0.700000, 0.700000)
    initial KE ratio: 0.550000
    position:         (-5.500000, 0.000000, 0.000000)
    velocity:         (0.966209, 4.802031, -2.238473)
    angular velocity: (4.258572, 1.362539, -4.414348)
    orientation:      (w=0.447214, i=0.894427, j=0.000000, k=0.000000)
  Body  2
    density:          0.300000
    shape axes ratio: (1.000000, 0.700000, 0.700000)
    initial KE ratio: 0.550000
    position:         (5.500000, 0.000000, 0.000000)
    velocity:         (0.904693, 4.496299, -2.095956)
    angular velocity: (-5.488057, -2.537674, -1.708759)
    orientation:      (w=0.707107, i=0.000000, j=0.707107, k=0.000000)

Preparing first step: implicit scheme, no bootstrap passes required.
First step may take longer than later steps.

First step completed in 0.399 s.

Step   100/2000    5.0% | t 5.000 | ETA 5m 46s | step 0.18s | KE 132.9548 | drift -0.00% | fluid 77.1922 | solid 55.7626
  Impulse FP iterations last/mean/max 12/12.70/14
Step   200/2000   10.0% | t 10.000 | ETA 5m 27s | step 0.19s | KE 133.0784 | drift +0.09% | fluid 77.3490 | solid 55.7294
  Impulse FP iterations last/mean/max 13/12.65/14
Step   300/2000   15.0% | t 15.000 | ETA 5m 9s | step 0.21s | KE 132.9861 | drift +0.02% | fluid 77.2123 | solid 55.7738
  Impulse FP iterations last/mean/max 14/12.67/14
Step   400/2000   20.0% | t 20.000 | ETA 4m 50s | step 0.18s | KE 133.0099 | drift +0.04% | fluid 77.1656 | solid 55.8443
  Impulse FP iterations last/mean/max 12/12.67/14
Step   500/2000   25.0% | t 25.000 | ETA 4m 31s | step 0.19s | KE 133.2221 | drift +0.20% | fluid 77.3045 | solid 55.9176
  Impulse FP iterations last/mean/max 13/12.67/14
Step   600/2000   30.0% | t 30.000 | ETA 4m 12s | step 0.18s | KE 132.9557 | drift -0.00% | fluid 77.1523 | solid 55.8034
  Impulse FP iterations last/mean/max 13/12.67/14
Step   700/2000   35.0% | t 35.000 | ETA 3m 54s | step 0.18s | KE 133.0039 | drift +0.03% | fluid 77.2663 | solid 55.7376
  Impulse FP iterations last/mean/max 13/12.67/14
Step   800/2000   40.0% | t 40.000 | ETA 3m 36s | step 0.16s | KE 133.0803 | drift +0.09% | fluid 77.3771 | solid 55.7032
  Impulse FP iterations last/mean/max 13/12.68/14
Step   900/2000   45.0% | t 45.000 | ETA 3m 18s | step 0.16s | KE 132.9340 | drift -0.02% | fluid 77.2041 | solid 55.7299
  Impulse FP iterations last/mean/max 12/12.68/14
Step  1000/2000   50.0% | t 50.000 | ETA 2m 59s | step 0.17s | KE 133.0653 | drift +0.08% | fluid 77.2304 | solid 55.8350
  Impulse FP iterations last/mean/max 12/12.68/14
Step  1100/2000   55.0% | t 55.000 | ETA 2m 41s | step 0.18s | KE 133.2049 | drift +0.19% | fluid 77.3247 | solid 55.8802
  Impulse FP iterations last/mean/max 13/12.69/14
Step  1200/2000   60.0% | t 60.000 | ETA 2m 23s | step 0.19s | KE 132.9066 | drift -0.04% | fluid 77.1661 | solid 55.7405
  Impulse FP iterations last/mean/max 14/12.68/14
Step  1300/2000   65.0% | t 65.000 | ETA 2m 5s | step 0.20s | KE 133.0332 | drift +0.06% | fluid 77.3341 | solid 55.6991
  Impulse FP iterations last/mean/max 14/12.69/14
Step  1400/2000   70.0% | t 70.000 | ETA 1m 47s | step 0.19s | KE 133.0709 | drift +0.08% | fluid 77.3948 | solid 55.6761
  Impulse FP iterations last/mean/max 13/12.68/14
Step  1500/2000   75.0% | t 75.000 | ETA 1m 28s | step 0.15s | KE 132.8975 | drift -0.05% | fluid 77.2010 | solid 55.6965
  Impulse FP iterations last/mean/max 13/12.68/14
Step  1600/2000   80.0% | t 80.000 | ETA 1m 10s | step 0.13s | KE 133.1209 | drift +0.12% | fluid 77.2939 | solid 55.8270
  Impulse FP iterations last/mean/max 12/12.69/14
Step  1700/2000   85.0% | t 85.000 | ETA 52s | step 0.14s | KE 133.1732 | drift +0.16% | fluid 77.3322 | solid 55.8410
  Impulse FP iterations last/mean/max 13/12.68/14
Step  1800/2000   90.0% | t 90.000 | ETA 34s | step 0.15s | KE 132.8851 | drift -0.05% | fluid 77.1929 | solid 55.6922
  Impulse FP iterations last/mean/max 14/12.69/14
Step  1900/2000   95.0% | t 95.000 | ETA 16s | step 0.14s | KE 133.0542 | drift +0.07% | fluid 77.3908 | solid 55.6634
  Impulse FP iterations last/mean/max 13/12.68/14
Solver finished successfully - good job!
Results saved successfully.

================== Run summary ==================
  Bodies:            2
  Triangles / nodes: 256 / 516
  Timesteps:         2000  (dt = 0.05)
  Simulated time:    0 -> 100
  First-step setup:  0.399 s
  Mean time/step:    0.1675 s  (excl. first step)
  Total wall time:   5m 35s
  Impulse FP iters last/mean/max: 13 / 12.683 / 14
  Approx impulse solves/step:     12.684
  Impulse start cache hits/direct: 1999 / 1
  Impulse global drift P/H:       3.181910e-8 / 2.965567e-3
  Impulse per-body max drift P/H: 4.289156e-8 / 3.926045e-4
  CPU cores:         256 available, 8 Rayon worker thread(s)
  Started:           2026-06-22 19:39:27
  Finished:          2026-06-22 19:45:03
  Output file:       /work/e643/e643/shared/multi_ellip/studies/two_body_paper_sweeps/runs/spheroid_1_0p7_0p7/spheroid_1_0p7_0p7_rho0p3_E0p55_sep11_run01_impulse_noproj/multiple_body_complete.dat
================================================
