
================ Simulation setup ================
  Run label:         /work/e643/e643/shared/multi_ellip/studies/departing_sphericity_sweep/runs/spheroid_oblate/homogeneous/spheroid_oblate_homogeneous_eps0p3_rho1_E0p5_sep8_run09_impulse_noproj/
  Started:           2026-06-24 02:30:09
  Input file:        /work/e643/e643/shared/multi_ellip/studies/departing_sphericity_sweep/runs/spheroid_oblate/homogeneous/spheroid_oblate_homogeneous_eps0p3_rho1_E0p5_sep8_run09_impulse_noproj/input.txt
  Output file:       /work/e643/e643/shared/multi_ellip/studies/departing_sphericity_sweep/runs/spheroid_oblate/homogeneous/spheroid_oblate_homogeneous_eps0p3_rho1_E0p5_sep8_run09_impulse_noproj/multiple_body_complete.dat
  Bodies:            2
  Fluid density:     1
  Mesh:              ndiv 2 -> 256 triangles / 516 nodes
  Simulated time:    0 -> 100  (dt = 0.05, ~2000 steps)
  Output cadence:    every 1 step(s)
  Output rows:       ~2001
  Progress cadence:  every 100 step(s)
  CPU cores:         256 available, 8 Rayon worker thread(s)
  Strong coupling:   disabled
  Impulse scheme:    enabled
  Hamiltonian step:  disabled
  Hamiltonian midpt: disabled
  Variational step:  disabled
  Energy projection: disabled
  Projection particular metric: Euclidean
  Fluid KE gradient: disabled  (eps = 0.001, scale = 1, linear = 1, angular = 1)
  Fluid KE discrete gradient: disabled
  Impulse pair metric correction: disabled  (mode = pair discrete-gradient, cutoff = all pairs, inner/outer = 0/0, eps = 0.001, linear scale = 1, angular scale = 0)
  Impulse metric correction: disabled  (internal load constraint = disabled)
  Impulse variational defect probe: disabled
  Impulse quadratic pressure: disabled  (scale = 1)
  Added-mass stab:   disabled
  Exact BEM geometry: disabled
  Exact singular BEM: disabled
  Legacy singular SLP diagnostic: disabled
  Phi-dot blend:     0 (off)

  Solver guidance:
    - Strong coupling: use for stiff close-coupled runs; slower but more implicit.
    - Impulse scheme: use when impulse/momentum conservation or KE drift is the focus. Recommended.
    - Added-mass stab: use for higher mesh counts (ndiv > 3) to preserve stability - deprecated.
================================================
Solver starting - good luck!

Initial state:
  Body  1
    density:          1.000000
    shape axes ratio: (1.000000, 1.000000, 0.455166)
    initial KE ratio: 0.500000
    position:         (-4.000000, 0.000000, 0.000000)
    velocity:         (-0.798935, 0.043240, -6.438480)
    angular velocity: (0.846293, -4.509074, 4.293071)
    orientation:      (w=0.074719, i=0.838663, j=-0.134291, k=0.522520)
  Body  2
    density:          1.000000
    shape axes ratio: (1.000000, 1.000000, 0.455166)
    initial KE ratio: 0.500000
    position:         (4.000000, 0.000000, 0.000000)
    velocity:         (-0.698939, 0.037828, -5.632626)
    angular velocity: (6.282551, -0.089160, 0.005118)
    orientation:      (w=0.242553, i=-0.483210, j=0.771207, k=0.336030)

Preparing first step: implicit scheme, no bootstrap passes required.
First step may take longer than later steps.

First step completed in 0.345 s.

Step   100/2000    5.0% | t 5.000 | ETA 5m 36s | step 0.14s | KE 345.1434 | drift +0.36% | fluid 86.8286 | solid 258.3149
  Impulse FP iterations last/mean/max 11/12.68/14
Step   200/2000   10.0% | t 10.000 | ETA 5m 16s | step 0.19s | KE 343.9757 | drift +0.02% | fluid 114.5755 | solid 229.4002
  Impulse FP iterations last/mean/max 14/12.70/14
Step   300/2000   15.0% | t 15.000 | ETA 4m 57s | step 0.18s | KE 343.3197 | drift -0.17% | fluid 114.1539 | solid 229.1658
  Impulse FP iterations last/mean/max 13/12.69/14
Step   400/2000   20.0% | t 20.000 | ETA 4m 40s | step 0.18s | KE 344.1523 | drift +0.07% | fluid 102.2641 | solid 241.8881
  Impulse FP iterations last/mean/max 13/12.70/14
Step   500/2000   25.0% | t 25.000 | ETA 4m 23s | step 0.18s | KE 343.3398 | drift -0.17% | fluid 121.5701 | solid 221.7697
  Impulse FP iterations last/mean/max 13/12.70/14
Step   600/2000   30.0% | t 30.000 | ETA 4m 5s | step 0.15s | KE 344.9087 | drift +0.29% | fluid 89.5958 | solid 255.3129
  Impulse FP iterations last/mean/max 11/12.71/14
Step   700/2000   35.0% | t 35.000 | ETA 3m 47s | step 0.17s | KE 343.5127 | drift -0.12% | fluid 116.8429 | solid 226.6698
  Impulse FP iterations last/mean/max 13/12.72/14
Step   800/2000   40.0% | t 40.000 | ETA 3m 29s | step 0.18s | KE 343.5339 | drift -0.11% | fluid 116.6836 | solid 226.8502
  Impulse FP iterations last/mean/max 14/12.72/14
Step   900/2000   45.0% | t 45.000 | ETA 3m 12s | step 0.17s | KE 344.9168 | drift +0.29% | fluid 89.4574 | solid 255.4594
  Impulse FP iterations last/mean/max 12/12.71/14
Step  1000/2000   50.0% | t 50.000 | ETA 2m 54s | step 0.17s | KE 343.3429 | drift -0.17% | fluid 121.5691 | solid 221.7738
  Impulse FP iterations last/mean/max 13/12.71/14
Step  1100/2000   55.0% | t 55.000 | ETA 2m 36s | step 0.19s | KE 344.1315 | drift +0.06% | fluid 102.5891 | solid 241.5424
  Impulse FP iterations last/mean/max 13/12.71/14
Step  1200/2000   60.0% | t 60.000 | ETA 2m 19s | step 0.18s | KE 343.3354 | drift -0.17% | fluid 113.9165 | solid 229.4189
  Impulse FP iterations last/mean/max 13/12.71/14
Step  1300/2000   65.0% | t 65.000 | ETA 2m 1s | step 0.19s | KE 344.0230 | drift +0.03% | fluid 114.4771 | solid 229.5459
  Impulse FP iterations last/mean/max 14/12.72/14
Step  1400/2000   70.0% | t 70.000 | ETA 1m 43s | step 0.13s | KE 345.0372 | drift +0.33% | fluid 86.7707 | solid 258.2665
  Impulse FP iterations last/mean/max 11/12.71/14
Step  1500/2000   75.0% | t 75.000 | ETA 1m 25s | step 0.17s | KE 343.6523 | drift -0.08% | fluid 119.8887 | solid 223.7636
  Impulse FP iterations last/mean/max 14/12.71/14
Step  1600/2000   80.0% | t 80.000 | ETA 1m 7s | step 0.13s | KE 343.1853 | drift -0.21% | fluid 114.8004 | solid 228.3848
  Impulse FP iterations last/mean/max 13/12.71/14
Step  1700/2000   85.0% | t 85.000 | ETA 50s | step 0.14s | KE 344.5579 | drift +0.19% | fluid 96.6295 | solid 247.9284
  Impulse FP iterations last/mean/max 13/12.71/14
Step  1800/2000   90.0% | t 90.000 | ETA 33s | step 0.14s | KE 343.4073 | drift -0.15% | fluid 120.3684 | solid 223.0389
  Impulse FP iterations last/mean/max 13/12.71/14
Step  1900/2000   95.0% | t 95.000 | ETA 16s | step 0.13s | KE 344.7334 | drift +0.24% | fluid 92.9863 | solid 251.7470
  Impulse FP iterations last/mean/max 12/12.71/14
Solver finished successfully - good job!
Results saved successfully.

================== Run summary ==================
  Bodies:            2
  Triangles / nodes: 256 / 516
  Timesteps:         2000  (dt = 0.05)
  Simulated time:    0 -> 100
  First-step setup:  0.345 s
  Mean time/step:    0.1622 s  (excl. first step)
  Total wall time:   5m 24s
  Impulse FP iters last/mean/max: 13 / 12.713 / 14
  Approx impulse solves/step:     12.713
  Impulse start cache hits/direct: 1999 / 1
  Impulse global drift P/H:       1.135604e-9 / 4.377121e-3
  Impulse per-body max drift P/H: 1.975894e-9 / 1.794287e-3
  CPU cores:         256 available, 8 Rayon worker thread(s)
  Started:           2026-06-24 02:30:09
  Finished:          2026-06-24 02:35:34
  Output file:       /work/e643/e643/shared/multi_ellip/studies/departing_sphericity_sweep/runs/spheroid_oblate/homogeneous/spheroid_oblate_homogeneous_eps0p3_rho1_E0p5_sep8_run09_impulse_noproj/multiple_body_complete.dat
================================================
