
================ Simulation setup ================
  Run label:         /work/e643/e643/shared/multi_ellip/studies/departing_sphericity_sweep/runs/triaxial/homogeneous/triaxial_homogeneous_eps0_rho1_E0p5_sep8_run06_impulse_noproj/
  Started:           2026-06-24 02:23:18
  Input file:        /work/e643/e643/shared/multi_ellip/studies/departing_sphericity_sweep/runs/triaxial/homogeneous/triaxial_homogeneous_eps0_rho1_E0p5_sep8_run06_impulse_noproj/input.txt
  Output file:       /work/e643/e643/shared/multi_ellip/studies/departing_sphericity_sweep/runs/triaxial/homogeneous/triaxial_homogeneous_eps0_rho1_E0p5_sep8_run06_impulse_noproj/multiple_body_complete.dat
  Bodies:            2
  Fluid density:     1
  Mesh:              ndiv 2 -> 256 triangles / 516 nodes
  Simulated time:    0 -> 100  (dt = 0.05, ~2000 steps)
  Output cadence:    every 1 step(s)
  Output rows:       ~2001
  Progress cadence:  every 100 step(s)
  CPU cores:         256 available, 8 Rayon worker thread(s)
  Strong coupling:   disabled
  Impulse scheme:    enabled
  Hamiltonian step:  disabled
  Hamiltonian midpt: disabled
  Variational step:  disabled
  Energy projection: disabled
  Projection particular metric: Euclidean
  Fluid KE gradient: disabled  (eps = 0.001, scale = 1, linear = 1, angular = 1)
  Fluid KE discrete gradient: disabled
  Impulse pair metric correction: disabled  (mode = pair discrete-gradient, cutoff = all pairs, inner/outer = 0/0, eps = 0.001, linear scale = 1, angular scale = 0)
  Impulse metric correction: disabled  (internal load constraint = disabled)
  Impulse variational defect probe: disabled
  Impulse quadratic pressure: disabled  (scale = 1)
  Added-mass stab:   disabled
  Exact BEM geometry: disabled
  Exact singular BEM: disabled
  Legacy singular SLP diagnostic: disabled
  Phi-dot blend:     0 (off)

  Solver guidance:
    - Strong coupling: use for stiff close-coupled runs; slower but more implicit.
    - Impulse scheme: use when impulse/momentum conservation or KE drift is the focus. Recommended.
    - Added-mass stab: use for higher mesh counts (ndiv > 3) to preserve stability - deprecated.
================================================
Solver starting - good luck!

Initial state:
  Body  1
    density:          1.000000
    shape axes ratio: (1.000000, 1.000000, 1.000000)
    initial KE ratio: 0.500000
    position:         (-4.000000, 0.000000, 0.000000)
    velocity:         (-5.058705, -1.883166, -1.563945)
    angular velocity: (-3.852521, -1.814560, -4.619943)
    orientation:      (w=0.282102, i=-0.187024, j=0.928341, k=-0.153700)
  Body  2
    density:          1.000000
    shape axes ratio: (1.000000, 1.000000, 1.000000)
    initial KE ratio: 0.500000
    position:         (4.000000, 0.000000, 0.000000)
    velocity:         (-5.058705, -1.883166, -1.563945)
    angular velocity: (-0.467564, -4.396633, 4.464238)
    orientation:      (w=-0.114562, i=0.187127, j=0.329339, k=0.918365)

Preparing first step: implicit scheme, no bootstrap passes required.
First step may take longer than later steps.

First step completed in 0.303 s.

Step   100/2000    5.0% | t 5.000 | ETA 2m 37s | step 0.09s | KE 266.5321 | drift -1.47% | fluid 72.0780 | solid 194.4541
  Impulse FP iterations last/mean/max 6/5.92/6
Step   200/2000   10.0% | t 10.000 | ETA 2m 26s | step 0.08s | KE 264.5340 | drift -2.21% | fluid 72.0780 | solid 192.4560
  Impulse FP iterations last/mean/max 6/5.86/6
Step   300/2000   15.0% | t 15.000 | ETA 2m 18s | step 0.09s | KE 264.5244 | drift -2.22% | fluid 72.0780 | solid 192.4464
  Impulse FP iterations last/mean/max 6/5.86/6
Step   400/2000   20.0% | t 20.000 | ETA 2m 10s | step 0.08s | KE 266.5029 | drift -1.48% | fluid 72.0780 | solid 194.4249
  Impulse FP iterations last/mean/max 6/5.86/6
Step   500/2000   25.0% | t 25.000 | ETA 2m 2s | step 0.09s | KE 270.4698 | drift -0.02% | fluid 72.0780 | solid 198.3918
  Impulse FP iterations last/mean/max 6/5.87/6
Step   600/2000   30.0% | t 30.000 | ETA 1m 51s | step 0.08s | KE 276.4249 | drift +2.18% | fluid 72.0780 | solid 204.3469
  Impulse FP iterations last/mean/max 6/5.86/6
Step   700/2000   35.0% | t 35.000 | ETA 1m 41s | step 0.07s | KE 284.3683 | drift +5.12% | fluid 72.0780 | solid 212.2903
  Impulse FP iterations last/mean/max 6/5.86/6
Step   800/2000   40.0% | t 40.000 | ETA 1m 33s | step 0.09s | KE 294.2993 | drift +8.79% | fluid 72.0780 | solid 222.2213
  Impulse FP iterations last/mean/max 6/5.85/6
Step   900/2000   45.0% | t 45.000 | ETA 1m 25s | step 0.08s | KE 306.2184 | drift +13.20% | fluid 72.0780 | solid 234.1403
  Impulse FP iterations last/mean/max 6/5.82/6
Step  1000/2000   50.0% | t 50.000 | ETA 1m 17s | step 0.08s | KE 320.1261 | drift +18.34% | fluid 72.0781 | solid 248.0480
  Impulse FP iterations last/mean/max 6/5.79/6
Step  1100/2000   55.0% | t 55.000 | ETA 1m 9s | step 0.07s | KE 336.0217 | drift +24.21% | fluid 72.0781 | solid 263.9437
  Impulse FP iterations last/mean/max 5/5.76/6
Step  1200/2000   60.0% | t 60.000 | ETA 1m 1s | step 0.07s | KE 353.9054 | drift +30.82% | fluid 72.0780 | solid 281.8273
  Impulse FP iterations last/mean/max 5/5.74/6
Step  1300/2000   65.0% | t 65.000 | ETA 54s | step 0.08s | KE 373.7766 | drift +38.17% | fluid 72.0781 | solid 301.6985
  Impulse FP iterations last/mean/max 6/5.72/6
Step  1400/2000   70.0% | t 70.000 | ETA 46s | step 0.09s | KE 395.6359 | drift +46.25% | fluid 72.0781 | solid 323.5578
  Impulse FP iterations last/mean/max 6/5.69/6
Step  1500/2000   75.0% | t 75.000 | ETA 38s | step 0.09s | KE 419.4829 | drift +55.07% | fluid 72.0781 | solid 347.4048
  Impulse FP iterations last/mean/max 6/5.67/6
Step  1600/2000   80.0% | t 80.000 | ETA 30s | step 0.07s | KE 445.3174 | drift +64.62% | fluid 72.0781 | solid 373.2393
  Impulse FP iterations last/mean/max 5/5.65/6
Step  1700/2000   85.0% | t 85.000 | ETA 23s | step 0.07s | KE 473.1398 | drift +74.90% | fluid 72.0781 | solid 401.0616
  Impulse FP iterations last/mean/max 5/5.63/6
Step  1800/2000   90.0% | t 90.000 | ETA 15s | step 0.07s | KE 502.9495 | drift +85.92% | fluid 72.0782 | solid 430.8713
  Impulse FP iterations last/mean/max 5/5.61/6
Step  1900/2000   95.0% | t 95.000 | ETA 7s | step 0.06s | KE 534.7468 | drift +97.67% | fluid 72.0782 | solid 462.6686
  Impulse FP iterations last/mean/max 5/5.60/6
Solver finished successfully - good job!
Results saved successfully.

================== Run summary ==================
  Bodies:            2
  Triangles / nodes: 256 / 516
  Timesteps:         2000  (dt = 0.05)
  Simulated time:    0 -> 100
  First-step setup:  0.303 s
  Mean time/step:    0.0761 s  (excl. first step)
  Total wall time:   2m 32s
  Impulse FP iters last/mean/max: 5 / 5.580 / 6
  Approx impulse solves/step:     5.581
  Impulse start cache hits/direct: 1999 / 1
  Impulse global drift P/H:       1.674278e-9 / 4.445769e-2
  Impulse per-body max drift P/H: 3.302986e-9 / 9.191810e-3
  CPU cores:         256 available, 8 Rayon worker thread(s)
  Started:           2026-06-24 02:23:18
  Finished:          2026-06-24 02:25:52
  Output file:       /work/e643/e643/shared/multi_ellip/studies/departing_sphericity_sweep/runs/triaxial/homogeneous/triaxial_homogeneous_eps0_rho1_E0p5_sep8_run06_impulse_noproj/multiple_body_complete.dat
================================================
