
================ Simulation setup ================
  Run label:         /work/e643/e643/shared/multi_ellip/studies/departing_sphericity_sweep/runs/spheroid_prolate/homogeneous/spheroid_prolate_homogeneous_eps0p01_rho1_E0p5_sep8_run10_impulse_noproj/
  Started:           2026-06-24 02:26:40
  Input file:        /work/e643/e643/shared/multi_ellip/studies/departing_sphericity_sweep/runs/spheroid_prolate/homogeneous/spheroid_prolate_homogeneous_eps0p01_rho1_E0p5_sep8_run10_impulse_noproj/input.txt
  Output file:       /work/e643/e643/shared/multi_ellip/studies/departing_sphericity_sweep/runs/spheroid_prolate/homogeneous/spheroid_prolate_homogeneous_eps0p01_rho1_E0p5_sep8_run10_impulse_noproj/multiple_body_complete.dat
  Bodies:            2
  Fluid density:     1
  Mesh:              ndiv 2 -> 256 triangles / 516 nodes
  Simulated time:    0 -> 100  (dt = 0.05, ~2000 steps)
  Output cadence:    every 1 step(s)
  Output rows:       ~2001
  Progress cadence:  every 100 step(s)
  CPU cores:         256 available, 8 Rayon worker thread(s)
  Strong coupling:   disabled
  Impulse scheme:    enabled
  Hamiltonian step:  disabled
  Hamiltonian midpt: disabled
  Variational step:  disabled
  Energy projection: disabled
  Projection particular metric: Euclidean
  Fluid KE gradient: disabled  (eps = 0.001, scale = 1, linear = 1, angular = 1)
  Fluid KE discrete gradient: disabled
  Impulse pair metric correction: disabled  (mode = pair discrete-gradient, cutoff = all pairs, inner/outer = 0/0, eps = 0.001, linear scale = 1, angular scale = 0)
  Impulse metric correction: disabled  (internal load constraint = disabled)
  Impulse variational defect probe: disabled
  Impulse quadratic pressure: disabled  (scale = 1)
  Added-mass stab:   disabled
  Exact BEM geometry: disabled
  Exact singular BEM: disabled
  Legacy singular SLP diagnostic: disabled
  Phi-dot blend:     0 (off)

  Solver guidance:
    - Strong coupling: use for stiff close-coupled runs; slower but more implicit.
    - Impulse scheme: use when impulse/momentum conservation or KE drift is the focus. Recommended.
    - Added-mass stab: use for higher mesh counts (ndiv > 3) to preserve stability - deprecated.
================================================
Solver starting - good luck!

Initial state:
  Body  1
    density:          1.000000
    shape axes ratio: (1.000000, 0.970590, 0.970590)
    initial KE ratio: 0.500000
    position:         (-4.000000, 0.000000, 0.000000)
    velocity:         (0.431850, -2.080237, -5.202236)
    angular velocity: (-3.730081, -3.248098, 3.874890)
    orientation:      (w=0.594707, i=0.102091, j=0.538956, k=0.587731)
  Body  2
    density:          1.000000
    shape axes ratio: (1.000000, 0.970590, 0.970590)
    initial KE ratio: 0.500000
    position:         (4.000000, 0.000000, 0.000000)
    velocity:         (0.430214, -2.072361, -5.182538)
    angular velocity: (-4.879273, 3.869765, 0.834286)
    orientation:      (w=0.156108, i=-0.461651, j=0.090069, k=-0.868560)

Preparing first step: implicit scheme, no bootstrap passes required.
First step may take longer than later steps.

First step completed in 0.342 s.

Step   100/2000    5.0% | t 5.000 | ETA 3m 29s | step 0.09s | KE 271.1321 | drift +0.03% | fluid 72.9353 | solid 198.1968
  Impulse FP iterations last/mean/max 7/7.75/8
Step   200/2000   10.0% | t 10.000 | ETA 3m 18s | step 0.10s | KE 271.0541 | drift +0.01% | fluid 73.0789 | solid 197.9752
  Impulse FP iterations last/mean/max 7/7.73/8
Step   300/2000   15.0% | t 15.000 | ETA 3m 7s | step 0.11s | KE 271.0184 | drift -0.01% | fluid 73.0569 | solid 197.9615
  Impulse FP iterations last/mean/max 7/7.71/8
Step   400/2000   20.0% | t 20.000 | ETA 2m 55s | step 0.10s | KE 271.1668 | drift +0.05% | fluid 73.0182 | solid 198.1486
  Impulse FP iterations last/mean/max 7/7.70/8
Step   500/2000   25.0% | t 25.000 | ETA 2m 44s | step 0.11s | KE 271.5819 | drift +0.20% | fluid 72.9830 | solid 198.5989
  Impulse FP iterations last/mean/max 8/7.70/8
Step   600/2000   30.0% | t 30.000 | ETA 2m 34s | step 0.12s | KE 272.3376 | drift +0.48% | fluid 72.5264 | solid 199.8112
  Impulse FP iterations last/mean/max 8/7.71/8
Step   700/2000   35.0% | t 35.000 | ETA 2m 23s | step 0.11s | KE 273.4334 | drift +0.88% | fluid 72.9357 | solid 200.4976
  Impulse FP iterations last/mean/max 8/7.71/8
Step   800/2000   40.0% | t 40.000 | ETA 2m 12s | step 0.11s | KE 275.2250 | drift +1.54% | fluid 72.5663 | solid 202.6588
  Impulse FP iterations last/mean/max 8/7.72/8
Step   900/2000   45.0% | t 45.000 | ETA 2m 1s | step 0.11s | KE 278.0056 | drift +2.57% | fluid 73.0876 | solid 204.9180
  Impulse FP iterations last/mean/max 8/7.73/8
Step  1000/2000   50.0% | t 50.000 | ETA 1m 50s | step 0.12s | KE 282.7191 | drift +4.31% | fluid 72.5193 | solid 210.1998
  Impulse FP iterations last/mean/max 8/7.74/8
Step  1100/2000   55.0% | t 55.000 | ETA 1m 39s | step 0.10s | KE 290.2167 | drift +7.08% | fluid 72.8477 | solid 217.3690
  Impulse FP iterations last/mean/max 8/7.75/8
Step  1200/2000   60.0% | t 60.000 | ETA 1m 27s | step 0.09s | KE 301.6343 | drift +11.29% | fluid 72.6448 | solid 228.9895
  Impulse FP iterations last/mean/max 7/7.76/8
Step  1300/2000   65.0% | t 65.000 | ETA 1m 16s | step 0.10s | KE 318.0076 | drift +17.33% | fluid 72.4841 | solid 245.5235
  Impulse FP iterations last/mean/max 7/7.76/8
Step  1400/2000   70.0% | t 70.000 | ETA 1m 5s | step 0.11s | KE 340.2227 | drift +25.53% | fluid 72.8304 | solid 267.3923
  Impulse FP iterations last/mean/max 8/7.76/8
Step  1500/2000   75.0% | t 75.000 | ETA 54s | step 0.10s | KE 369.4005 | drift +36.29% | fluid 72.6172 | solid 296.7834
  Impulse FP iterations last/mean/max 7/7.77/8
Step  1600/2000   80.0% | t 80.000 | ETA 44s | step 0.10s | KE 406.1267 | drift +49.84% | fluid 72.4154 | solid 333.7114
  Impulse FP iterations last/mean/max 7/7.77/8
Step  1700/2000   85.0% | t 85.000 | ETA 33s | step 0.12s | KE 450.7055 | drift +66.29% | fluid 72.4876 | solid 378.2179
  Impulse FP iterations last/mean/max 8/7.77/8
Step  1800/2000   90.0% | t 90.000 | ETA 22s | step 0.11s | KE 503.6183 | drift +85.81% | fluid 72.4372 | solid 431.1811
  Impulse FP iterations last/mean/max 8/7.78/8
Step  1900/2000   95.0% | t 95.000 | ETA 10s | step 0.11s | KE 563.9285 | drift +108.06% | fluid 73.1107 | solid 490.8178
  Impulse FP iterations last/mean/max 8/7.78/8
Solver finished successfully - good job!
Results saved successfully.

================== Run summary ==================
  Bodies:            2
  Triangles / nodes: 256 / 516
  Timesteps:         2000  (dt = 0.05)
  Simulated time:    0 -> 100
  First-step setup:  0.342 s
  Mean time/step:    0.1088 s  (excl. first step)
  Total wall time:   3m 37s
  Impulse FP iters last/mean/max: 8 / 7.787 / 8
  Approx impulse solves/step:     7.787
  Impulse start cache hits/direct: 1999 / 1
  Impulse global drift P/H:       1.665614e-8 / 3.284742e-2
  Impulse per-body max drift P/H: 3.413714e-8 / 1.981169e-3
  CPU cores:         256 available, 8 Rayon worker thread(s)
  Started:           2026-06-24 02:26:40
  Finished:          2026-06-24 02:30:18
  Output file:       /work/e643/e643/shared/multi_ellip/studies/departing_sphericity_sweep/runs/spheroid_prolate/homogeneous/spheroid_prolate_homogeneous_eps0p01_rho1_E0p5_sep8_run10_impulse_noproj/multiple_body_complete.dat
================================================
