
================ Simulation setup ================
  Run label:         /work/e643/e643/shared/multi_ellip/studies/two_body_paper_sweeps/runs/ellipsoid_1_0p8_0p6/ellipsoid_1_0p8_0p6_rho1_E4_sep5_run01_impulse_noproj/
  Started:           2026-06-22 19:34:43
  Input file:        /work/e643/e643/shared/multi_ellip/studies/two_body_paper_sweeps/runs/ellipsoid_1_0p8_0p6/ellipsoid_1_0p8_0p6_rho1_E4_sep5_run01_impulse_noproj/input.txt
  Output file:       /work/e643/e643/shared/multi_ellip/studies/two_body_paper_sweeps/runs/ellipsoid_1_0p8_0p6/ellipsoid_1_0p8_0p6_rho1_E4_sep5_run01_impulse_noproj/multiple_body_complete.dat
  Bodies:            2
  Fluid density:     1
  Mesh:              ndiv 2 -> 256 triangles / 516 nodes
  Simulated time:    0 -> 100  (dt = 0.05, ~2000 steps)
  Output cadence:    every 1 step(s)
  Output rows:       ~2001
  Progress cadence:  every 100 step(s)
  CPU cores:         256 available, 8 Rayon worker thread(s)
  Strong coupling:   disabled
  Impulse scheme:    enabled
  Hamiltonian step:  disabled
  Hamiltonian midpt: disabled
  Variational step:  disabled
  Energy projection: disabled
  Projection particular metric: Euclidean
  Fluid KE gradient: disabled  (eps = 0.001, scale = 1, linear = 1, angular = 1)
  Fluid KE discrete gradient: disabled
  Impulse pair metric correction: disabled  (mode = pair discrete-gradient, cutoff = all pairs, inner/outer = 0/0, eps = 0.001, linear scale = 1, angular scale = 0)
  Impulse metric correction: disabled  (internal load constraint = disabled)
  Impulse variational defect probe: disabled
  Impulse quadratic pressure: disabled  (scale = 1)
  Added-mass stab:   disabled
  Exact BEM geometry: disabled
  Exact singular BEM: disabled
  Legacy singular SLP diagnostic: disabled
  Phi-dot blend:     0 (off)

  Solver guidance:
    - Strong coupling: use for stiff close-coupled runs; slower but more implicit.
    - Impulse scheme: use when impulse/momentum conservation or KE drift is the focus. Recommended.
    - Added-mass stab: use for higher mesh counts (ndiv > 3) to preserve stability - deprecated.
================================================
Solver starting - good luck!

Initial state:
  Body  1
    density:          1.000000
    shape axes ratio: (1.000000, 0.800000, 0.600000)
    initial KE ratio: 4.000000
    position:         (-2.500000, 0.000000, 0.000000)
    velocity:         (1.365276, -1.287999, 0.454178)
    angular velocity: (4.876536, -3.684673, -1.456363)
    orientation:      (w=0.447214, i=0.894427, j=0.000000, k=0.000000)
  Body  2
    density:          1.000000
    shape axes ratio: (1.000000, 0.800000, 0.600000)
    initial KE ratio: 4.000000
    position:         (2.500000, 0.000000, 0.000000)
    velocity:         (1.545283, -1.457818, 0.514060)
    angular velocity: (-1.587343, 4.034081, -4.548071)
    orientation:      (w=0.707107, i=0.000000, j=0.707107, k=0.000000)

Preparing first step: implicit scheme, no bootstrap passes required.
First step may take longer than later steps.

First step completed in 0.331 s.

Step   100/2000    5.0% | t 5.000 | ETA 4m 42s | step 0.13s | KE 97.4796 | drift -2.13% | fluid 14.2065 | solid 83.2731
  Impulse FP iterations last/mean/max 10/10.74/12
Step   200/2000   10.0% | t 10.000 | ETA 4m 23s | step 0.15s | KE 96.8768 | drift -2.73% | fluid 16.8714 | solid 80.0054
  Impulse FP iterations last/mean/max 11/10.66/12
Step   300/2000   15.0% | t 15.000 | ETA 4m 7s | step 0.15s | KE 96.7773 | drift -2.83% | fluid 15.7020 | solid 81.0753
  Impulse FP iterations last/mean/max 11/10.63/12
Step   400/2000   20.0% | t 20.000 | ETA 3m 52s | step 0.14s | KE 96.7194 | drift -2.89% | fluid 15.4553 | solid 81.2642
  Impulse FP iterations last/mean/max 10/10.61/12
Step   500/2000   25.0% | t 25.000 | ETA 3m 37s | step 0.13s | KE 96.7056 | drift -2.90% | fluid 14.0350 | solid 82.6707
  Impulse FP iterations last/mean/max 10/10.61/12
Step   600/2000   30.0% | t 30.000 | ETA 3m 23s | step 0.16s | KE 96.7086 | drift -2.90% | fluid 17.9067 | solid 78.8019
  Impulse FP iterations last/mean/max 11/10.62/12
Step   700/2000   35.0% | t 35.000 | ETA 3m 7s | step 0.14s | KE 96.7322 | drift -2.88% | fluid 15.7764 | solid 80.9558
  Impulse FP iterations last/mean/max 11/10.59/12
Step   800/2000   40.0% | t 40.000 | ETA 2m 51s | step 0.12s | KE 96.6910 | drift -2.92% | fluid 16.2165 | solid 80.4745
  Impulse FP iterations last/mean/max 10/10.58/12
Step   900/2000   45.0% | t 45.000 | ETA 2m 34s | step 0.13s | KE 96.6775 | drift -2.93% | fluid 13.1411 | solid 83.5364
  Impulse FP iterations last/mean/max 11/10.58/12
Step  1000/2000   50.0% | t 50.000 | ETA 2m 19s | step 0.13s | KE 96.6921 | drift -2.92% | fluid 15.6405 | solid 81.0516
  Impulse FP iterations last/mean/max 10/10.58/12
Step  1100/2000   55.0% | t 55.000 | ETA 2m 5s | step 0.14s | KE 96.6756 | drift -2.93% | fluid 15.6174 | solid 81.0582
  Impulse FP iterations last/mean/max 11/10.59/12
Step  1200/2000   60.0% | t 60.000 | ETA 1m 52s | step 0.16s | KE 96.6840 | drift -2.92% | fluid 17.5722 | solid 79.1118
  Impulse FP iterations last/mean/max 11/10.59/12
Step  1300/2000   65.0% | t 65.000 | ETA 1m 38s | step 0.14s | KE 96.6772 | drift -2.93% | fluid 12.9161 | solid 83.7611
  Impulse FP iterations last/mean/max 10/10.59/12
Step  1400/2000   70.0% | t 70.000 | ETA 1m 24s | step 0.14s | KE 96.6921 | drift -2.92% | fluid 14.6890 | solid 82.0030
  Impulse FP iterations last/mean/max 10/10.59/12
Step  1500/2000   75.0% | t 75.000 | ETA 1m 10s | step 0.15s | KE 96.6826 | drift -2.93% | fluid 14.4371 | solid 82.2456
  Impulse FP iterations last/mean/max 11/10.58/12
Step  1600/2000   80.0% | t 80.000 | ETA 56s | step 0.14s | KE 96.6894 | drift -2.92% | fluid 16.3168 | solid 80.3726
  Impulse FP iterations last/mean/max 10/10.58/12
Step  1700/2000   85.0% | t 85.000 | ETA 42s | step 0.14s | KE 96.6770 | drift -2.93% | fluid 13.6202 | solid 83.0568
  Impulse FP iterations last/mean/max 10/10.58/12
Step  1800/2000   90.0% | t 90.000 | ETA 28s | step 0.15s | KE 96.6825 | drift -2.93% | fluid 15.4834 | solid 81.1991
  Impulse FP iterations last/mean/max 11/10.58/12
Step  1900/2000   95.0% | t 95.000 | ETA 14s | step 0.14s | KE 96.6505 | drift -2.96% | fluid 15.0576 | solid 81.5929
  Impulse FP iterations last/mean/max 10/10.58/12
Solver finished successfully - good job!
Results saved successfully.

================== Run summary ==================
  Bodies:            2
  Triangles / nodes: 256 / 516
  Timesteps:         2000  (dt = 0.05)
  Simulated time:    0 -> 100
  First-step setup:  0.331 s
  Mean time/step:    0.1422 s  (excl. first step)
  Total wall time:   4m 44s
  Impulse FP iters last/mean/max: 11 / 10.578 / 12
  Approx impulse solves/step:     10.579
  Impulse start cache hits/direct: 1999 / 1
  Impulse global drift P/H:       3.291716e-8 / 1.978450e-2
  Impulse per-body max drift P/H: 6.530880e-8 / 7.987078e-3
  CPU cores:         256 available, 8 Rayon worker thread(s)
  Started:           2026-06-22 19:34:43
  Finished:          2026-06-22 19:39:28
  Output file:       /work/e643/e643/shared/multi_ellip/studies/two_body_paper_sweeps/runs/ellipsoid_1_0p8_0p6/ellipsoid_1_0p8_0p6_rho1_E4_sep5_run01_impulse_noproj/multiple_body_complete.dat
================================================
