
================ Simulation setup ================
  Run label:         /work/e643/e643/shared/multi_ellip/studies/two_body_paper_sweeps/runs/ellipsoid_1_0p8_0p6/ellipsoid_1_0p8_0p6_rho0p03_E30_sep11_run04_impulse_noproj/
  Started:           2026-06-24 02:49:24
  Input file:        /work/e643/e643/shared/multi_ellip/studies/two_body_paper_sweeps/runs/ellipsoid_1_0p8_0p6/ellipsoid_1_0p8_0p6_rho0p03_E30_sep11_run04_impulse_noproj/input.txt
  Output file:       /work/e643/e643/shared/multi_ellip/studies/two_body_paper_sweeps/runs/ellipsoid_1_0p8_0p6/ellipsoid_1_0p8_0p6_rho0p03_E30_sep11_run04_impulse_noproj/multiple_body_complete.dat
  Bodies:            2
  Fluid density:     1
  Mesh:              ndiv 2 -> 256 triangles / 516 nodes
  Simulated time:    0 -> 100  (dt = 0.05, ~2000 steps)
  Output cadence:    every 1 step(s)
  Output rows:       ~2001
  Progress cadence:  every 100 step(s)
  CPU cores:         256 available, 8 Rayon worker thread(s)
  Strong coupling:   disabled
  Impulse scheme:    enabled
  Hamiltonian step:  disabled
  Hamiltonian midpt: disabled
  Variational step:  disabled
  Energy projection: disabled
  Projection particular metric: Euclidean
  Fluid KE gradient: disabled  (eps = 0.001, scale = 1, linear = 1, angular = 1)
  Fluid KE discrete gradient: disabled
  Impulse pair metric correction: disabled  (mode = pair discrete-gradient, cutoff = all pairs, inner/outer = 0/0, eps = 0.001, linear scale = 1, angular scale = 0)
  Impulse metric correction: disabled  (internal load constraint = disabled)
  Impulse variational defect probe: disabled
  Impulse quadratic pressure: disabled  (scale = 1)
  Added-mass stab:   disabled
  Exact BEM geometry: disabled
  Exact singular BEM: disabled
  Legacy singular SLP diagnostic: disabled
  Phi-dot blend:     0 (off)

  Solver guidance:
    - Strong coupling: use for stiff close-coupled runs; slower but more implicit.
    - Impulse scheme: use when impulse/momentum conservation or KE drift is the focus. Recommended.
    - Added-mass stab: use for higher mesh counts (ndiv > 3) to preserve stability - deprecated.
================================================
Solver starting - good luck!

Initial state:
  Body  1
    density:          0.030000
    shape axes ratio: (1.000000, 0.800000, 0.600000)
    initial KE ratio: 30.000000
    position:         (-5.500000, 0.000000, 0.000000)
    velocity:         (0.213227, -0.610989, -0.450725)
    angular velocity: (-2.094195, 4.117538, 4.258949)
    orientation:      (w=-0.355398, i=-0.005429, j=0.796135, k=-0.489727)
  Body  2
    density:          0.030000
    shape axes ratio: (1.000000, 0.800000, 0.600000)
    initial KE ratio: 30.000000
    position:         (5.500000, 0.000000, 0.000000)
    velocity:         (0.204119, -0.584891, -0.431473)
    angular velocity: (4.281731, -1.466469, -4.358287)
    orientation:      (w=-0.959647, i=-0.187998, j=0.071368, k=-0.196571)

Preparing first step: implicit scheme, no bootstrap passes required.
First step may take longer than later steps.

First step completed in 0.648 s.

Step   100/2000    5.0% | t 5.000 | ETA 12m 59s | step 0.39s | KE 9.2649 | drift +0.17% | fluid 7.2221 | solid 2.0428
  Impulse FP iterations last/mean/max 30/29.89/30
Step   200/2000   10.0% | t 10.000 | ETA 11m 44s | step 0.38s | KE 9.2751 | drift +0.28% | fluid 6.9258 | solid 2.3493
  Impulse FP iterations last/mean/max 30/29.89/30
Step   300/2000   15.0% | t 15.000 | ETA 10m 52s | step 0.37s | KE 9.2706 | drift +0.23% | fluid 6.9964 | solid 2.2741
  Impulse FP iterations last/mean/max 30/29.90/30
Step   400/2000   20.0% | t 20.000 | ETA 10m 15s | step 0.39s | KE 9.2716 | drift +0.25% | fluid 7.1856 | solid 2.0860
  Impulse FP iterations last/mean/max 30/29.91/30
Step   500/2000   25.0% | t 25.000 | ETA 9m 44s | step 0.41s | KE 9.2624 | drift +0.15% | fluid 7.0536 | solid 2.2088
  Impulse FP iterations last/mean/max 30/29.89/30
Step   600/2000   30.0% | t 30.000 | ETA 9m 10s | step 0.41s | KE 9.2744 | drift +0.28% | fluid 7.4623 | solid 1.8120
  Impulse FP iterations last/mean/max 30/29.91/30
Step   700/2000   35.0% | t 35.000 | ETA 8m 34s | step 0.41s | KE 9.2550 | drift +0.07% | fluid 7.2417 | solid 2.0133
  Impulse FP iterations last/mean/max 30/29.91/30
Step   800/2000   40.0% | t 40.000 | ETA 7m 57s | step 0.41s | KE 9.2535 | drift +0.05% | fluid 7.4402 | solid 1.8133
  Impulse FP iterations last/mean/max 30/29.91/30
Step   900/2000   45.0% | t 45.000 | ETA 7m 18s | step 0.41s | KE 9.2483 | drift -0.01% | fluid 7.1143 | solid 2.1340
  Impulse FP iterations last/mean/max 30/29.90/30
Step  1000/2000   50.0% | t 50.000 | ETA 6m 39s | step 0.42s | KE 9.2516 | drift +0.03% | fluid 7.3074 | solid 1.9442
  Impulse FP iterations last/mean/max 30/29.91/30
Step  1100/2000   55.0% | t 55.000 | ETA 6m 0s | step 0.42s | KE 9.2554 | drift +0.07% | fluid 6.8074 | solid 2.4480
  Impulse FP iterations last/mean/max 30/29.88/30
Step  1200/2000   60.0% | t 60.000 | ETA 5m 20s | step 0.41s | KE 9.2722 | drift +0.25% | fluid 7.2588 | solid 2.0135
  Impulse FP iterations last/mean/max 30/29.88/30
Step  1300/2000   65.0% | t 65.000 | ETA 4m 41s | step 0.42s | KE 9.2749 | drift +0.28% | fluid 7.2869 | solid 1.9880
  Impulse FP iterations last/mean/max 30/29.89/30
Step  1400/2000   70.0% | t 70.000 | ETA 4m 1s | step 0.39s | KE 9.2572 | drift +0.09% | fluid 6.8178 | solid 2.4394
  Impulse FP iterations last/mean/max 30/29.89/30
Step  1500/2000   75.0% | t 75.000 | ETA 3m 21s | step 0.40s | KE 9.2623 | drift +0.15% | fluid 7.1416 | solid 2.1207
  Impulse FP iterations last/mean/max 30/29.89/30
Step  1600/2000   80.0% | t 80.000 | ETA 2m 41s | step 0.43s | KE 9.2547 | drift +0.06% | fluid 7.5142 | solid 1.7405
  Impulse FP iterations last/mean/max 30/29.89/30
Step  1700/2000   85.0% | t 85.000 | ETA 2m 1s | step 0.41s | KE 9.2536 | drift +0.05% | fluid 7.3527 | solid 1.9008
  Impulse FP iterations last/mean/max 30/29.89/30
Step  1800/2000   90.0% | t 90.000 | ETA 1m 20s | step 0.39s | KE 9.2473 | drift -0.02% | fluid 6.8160 | solid 2.4314
  Impulse FP iterations last/mean/max 30/29.88/30
Step  1900/2000   95.0% | t 95.000 | ETA 40s | step 0.42s | KE 9.2573 | drift +0.09% | fluid 7.3238 | solid 1.9336
  Impulse FP iterations last/mean/max 30/29.88/30
Solver finished successfully - good job!
Results saved successfully.

================== Run summary ==================
  Bodies:            2
  Triangles / nodes: 256 / 516
  Timesteps:         2000  (dt = 0.05)
  Simulated time:    0 -> 100
  First-step setup:  0.648 s
  Mean time/step:    0.4031 s  (excl. first step)
  Total wall time:   13m 26s
  Impulse FP iters last/mean/max: 30 / 29.881 / 30
  Approx impulse solves/step:     29.881
  Impulse start cache hits/direct: 1999 / 1
  Impulse global drift P/H:       8.127920e-6 / 8.446824e-3
  Impulse per-body max drift P/H: 1.456736e-5 / 2.247856e-3
  CPU cores:         256 available, 8 Rayon worker thread(s)
  Started:           2026-06-24 02:49:24
  Finished:          2026-06-24 03:02:51
  Output file:       /work/e643/e643/shared/multi_ellip/studies/two_body_paper_sweeps/runs/ellipsoid_1_0p8_0p6/ellipsoid_1_0p8_0p6_rho0p03_E30_sep11_run04_impulse_noproj/multiple_body_complete.dat
================================================
