
================ Simulation setup ================
  Run label:         /work/e643/e643/shared/multi_ellip/studies/two_body_paper_sweeps/runs/ellipsoid_1_0p8_0p6/ellipsoid_1_0p8_0p6_rho10_E0p55_sep3_run03_impulse_noproj/
  Started:           2026-06-24 01:17:40
  Input file:        /work/e643/e643/shared/multi_ellip/studies/two_body_paper_sweeps/runs/ellipsoid_1_0p8_0p6/ellipsoid_1_0p8_0p6_rho10_E0p55_sep3_run03_impulse_noproj/input.txt
  Output file:       /work/e643/e643/shared/multi_ellip/studies/two_body_paper_sweeps/runs/ellipsoid_1_0p8_0p6/ellipsoid_1_0p8_0p6_rho10_E0p55_sep3_run03_impulse_noproj/multiple_body_complete.dat
  Bodies:            2
  Fluid density:     1
  Mesh:              ndiv 2 -> 256 triangles / 516 nodes
  Simulated time:    0 -> 100  (dt = 0.05, ~2000 steps)
  Output cadence:    every 1 step(s)
  Output rows:       ~2001
  Progress cadence:  every 100 step(s)
  CPU cores:         256 available, 8 Rayon worker thread(s)
  Strong coupling:   disabled
  Impulse scheme:    enabled
  Hamiltonian step:  disabled
  Hamiltonian midpt: disabled
  Variational step:  disabled
  Energy projection: disabled
  Projection particular metric: Euclidean
  Fluid KE gradient: disabled  (eps = 0.001, scale = 1, linear = 1, angular = 1)
  Fluid KE discrete gradient: disabled
  Impulse pair metric correction: disabled  (mode = pair discrete-gradient, cutoff = all pairs, inner/outer = 0/0, eps = 0.001, linear scale = 1, angular scale = 0)
  Impulse metric correction: disabled  (internal load constraint = disabled)
  Impulse variational defect probe: disabled
  Impulse quadratic pressure: disabled  (scale = 1)
  Added-mass stab:   disabled
  Exact BEM geometry: disabled
  Exact singular BEM: disabled
  Legacy singular SLP diagnostic: disabled
  Phi-dot blend:     0 (off)

  Solver guidance:
    - Strong coupling: use for stiff close-coupled runs; slower but more implicit.
    - Impulse scheme: use when impulse/momentum conservation or KE drift is the focus. Recommended.
    - Added-mass stab: use for higher mesh counts (ndiv > 3) to preserve stability - deprecated.
================================================
Solver starting - good luck!

Initial state:
  Body  1
    density:          10.000000
    shape axes ratio: (1.000000, 0.800000, 0.600000)
    initial KE ratio: 0.550000
    position:         (-1.500000, 0.000000, 0.000000)
    velocity:         (-1.146705, -4.824483, 2.005600)
    angular velocity: (-3.931635, 4.860015, 0.633183)
    orientation:      (w=-0.678633, i=-0.115537, j=-0.175710, k=0.703729)
  Body  2
    density:          10.000000
    shape axes ratio: (1.000000, 0.800000, 0.600000)
    initial KE ratio: 0.550000
    position:         (1.500000, 0.000000, 0.000000)
    velocity:         (-1.051577, -4.424256, 1.839220)
    angular velocity: (-6.037868, -1.738435, 0.020376)
    orientation:      (w=-0.129417, i=0.346300, j=0.898440, k=-0.236925)

Preparing first step: implicit scheme, no bootstrap passes required.
First step may take longer than later steps.

First step completed in 6.981 s.

Step   100/2000    5.0% | t 5.000 | ETA 3m 15s | step 0.10s | KE 1869.5083 | drift +0.78% | fluid 55.0335 | solid 1814.4749
  Impulse FP iterations last/mean/max 7/7.11/8
Step   200/2000   10.0% | t 10.000 | ETA 3m 4s | step 0.10s | KE 1886.3278 | drift +1.69% | fluid 61.3226 | solid 1825.0052
  Impulse FP iterations last/mean/max 7/7.12/8
Step   300/2000   15.0% | t 15.000 | ETA 2m 54s | step 0.11s | KE 1892.6586 | drift +2.03% | fluid 48.9203 | solid 1843.7383
  Impulse FP iterations last/mean/max 7/7.11/8
Step   400/2000   20.0% | t 20.000 | ETA 2m 43s | step 0.10s | KE 1894.6972 | drift +2.14% | fluid 59.3099 | solid 1835.3873
  Impulse FP iterations last/mean/max 7/7.13/8
Step   500/2000   25.0% | t 25.000 | ETA 2m 33s | step 0.10s | KE 1895.9638 | drift +2.21% | fluid 51.2278 | solid 1844.7360
  Impulse FP iterations last/mean/max 7/7.14/8
Step   600/2000   30.0% | t 30.000 | ETA 2m 23s | step 0.10s | KE 1896.3137 | drift +2.23% | fluid 68.4859 | solid 1827.8279
  Impulse FP iterations last/mean/max 7/7.14/8
Step   700/2000   35.0% | t 35.000 | ETA 2m 13s | step 0.09s | KE 1896.8807 | drift +2.26% | fluid 54.2279 | solid 1842.6528
  Impulse FP iterations last/mean/max 7/7.15/8
Step   800/2000   40.0% | t 40.000 | ETA 2m 2s | step 0.10s | KE 1896.7019 | drift +2.25% | fluid 69.7110 | solid 1826.9909
  Impulse FP iterations last/mean/max 7/7.15/8
Step   900/2000   45.0% | t 45.000 | ETA 1m 52s | step 0.09s | KE 1897.4684 | drift +2.29% | fluid 57.3089 | solid 1840.1595
  Impulse FP iterations last/mean/max 7/7.15/8
Step  1000/2000   50.0% | t 50.000 | ETA 1m 42s | step 0.10s | KE 1897.0599 | drift +2.27% | fluid 68.7411 | solid 1828.3188
  Impulse FP iterations last/mean/max 7/7.15/8
Step  1100/2000   55.0% | t 55.000 | ETA 1m 31s | step 0.10s | KE 1897.6383 | drift +2.30% | fluid 55.3009 | solid 1842.3374
  Impulse FP iterations last/mean/max 7/7.15/8
Step  1200/2000   60.0% | t 60.000 | ETA 1m 21s | step 0.10s | KE 1897.5694 | drift +2.29% | fluid 63.6013 | solid 1833.9681
  Impulse FP iterations last/mean/max 7/7.15/8
Step  1300/2000   65.0% | t 65.000 | ETA 1m 11s | step 0.11s | KE 1897.0800 | drift +2.27% | fluid 73.7098 | solid 1823.3702
  Impulse FP iterations last/mean/max 7/7.15/8
Step  1400/2000   70.0% | t 70.000 | ETA 1m 1s | step 0.10s | KE 1897.6202 | drift +2.30% | fluid 57.2519 | solid 1840.3683
  Impulse FP iterations last/mean/max 7/7.14/8
Step  1500/2000   75.0% | t 75.000 | ETA 51s | step 0.12s | KE 1896.7518 | drift +2.25% | fluid 85.0244 | solid 1811.7274
  Impulse FP iterations last/mean/max 8/7.14/8
Step  1600/2000   80.0% | t 80.000 | ETA 40s | step 0.10s | KE 1897.0406 | drift +2.27% | fluid 72.2373 | solid 1824.8032
  Impulse FP iterations last/mean/max 7/7.14/8
Step  1700/2000   85.0% | t 85.000 | ETA 30s | step 0.10s | KE 1896.9630 | drift +2.26% | fluid 74.7731 | solid 1822.1898
  Impulse FP iterations last/mean/max 7/7.15/8
Step  1800/2000   90.0% | t 90.000 | ETA 20s | step 0.10s | KE 1897.1317 | drift +2.27% | fluid 68.0844 | solid 1829.0474
  Impulse FP iterations last/mean/max 7/7.14/8
Step  1900/2000   95.0% | t 95.000 | ETA 10s | step 0.10s | KE 1896.9610 | drift +2.26% | fluid 79.6020 | solid 1817.3590
  Impulse FP iterations last/mean/max 7/7.14/8
Solver finished successfully - good job!
Results saved successfully.

================== Run summary ==================
  Bodies:            2
  Triangles / nodes: 256 / 516
  Timesteps:         2000  (dt = 0.05)
  Simulated time:    0 -> 100
  First-step setup:  6.981 s
  Mean time/step:    0.1017 s  (excl. first step)
  Total wall time:   3m 30s
  Impulse FP iters last/mean/max: 7 / 7.143 / 8
  Approx impulse solves/step:     7.143
  Impulse start cache hits/direct: 1999 / 1
  Impulse global drift P/H:       1.778285e-9 / 1.898151e-2
  Impulse per-body max drift P/H: 2.867457e-9 / 8.066400e-3
  CPU cores:         256 available, 8 Rayon worker thread(s)
  Started:           2026-06-24 01:17:40
  Finished:          2026-06-24 01:21:12
  Output file:       /work/e643/e643/shared/multi_ellip/studies/two_body_paper_sweeps/runs/ellipsoid_1_0p8_0p6/ellipsoid_1_0p8_0p6_rho10_E0p55_sep3_run03_impulse_noproj/multiple_body_complete.dat
================================================
