
================ Simulation setup ================
  Run label:         /work/e643/e643/shared/multi_ellip/studies/departing_sphericity_sweep/runs/triaxial/homogeneous/triaxial_homogeneous_eps0p003_rho1_E0p5_sep8_run02_impulse_noproj/
  Started:           2026-06-24 02:26:26
  Input file:        /work/e643/e643/shared/multi_ellip/studies/departing_sphericity_sweep/runs/triaxial/homogeneous/triaxial_homogeneous_eps0p003_rho1_E0p5_sep8_run02_impulse_noproj/input.txt
  Output file:       /work/e643/e643/shared/multi_ellip/studies/departing_sphericity_sweep/runs/triaxial/homogeneous/triaxial_homogeneous_eps0p003_rho1_E0p5_sep8_run02_impulse_noproj/multiple_body_complete.dat
  Bodies:            2
  Fluid density:     1
  Mesh:              ndiv 2 -> 256 triangles / 516 nodes
  Simulated time:    0 -> 100  (dt = 0.05, ~2000 steps)
  Output cadence:    every 1 step(s)
  Output rows:       ~2001
  Progress cadence:  every 100 step(s)
  CPU cores:         256 available, 8 Rayon worker thread(s)
  Strong coupling:   disabled
  Impulse scheme:    enabled
  Hamiltonian step:  disabled
  Hamiltonian midpt: disabled
  Variational step:  disabled
  Energy projection: disabled
  Projection particular metric: Euclidean
  Fluid KE gradient: disabled  (eps = 0.001, scale = 1, linear = 1, angular = 1)
  Fluid KE discrete gradient: disabled
  Impulse pair metric correction: disabled  (mode = pair discrete-gradient, cutoff = all pairs, inner/outer = 0/0, eps = 0.001, linear scale = 1, angular scale = 0)
  Impulse metric correction: disabled  (internal load constraint = disabled)
  Impulse variational defect probe: disabled
  Impulse quadratic pressure: disabled  (scale = 1)
  Added-mass stab:   disabled
  Exact BEM geometry: disabled
  Exact singular BEM: disabled
  Legacy singular SLP diagnostic: disabled
  Phi-dot blend:     0 (off)

  Solver guidance:
    - Strong coupling: use for stiff close-coupled runs; slower but more implicit.
    - Impulse scheme: use when impulse/momentum conservation or KE drift is the focus. Recommended.
    - Added-mass stab: use for higher mesh counts (ndiv > 3) to preserve stability - deprecated.
================================================
Solver starting - good luck!

Initial state:
  Body  1
    density:          1.000000
    shape axes ratio: (1.000000, 0.997009, 0.994027)
    initial KE ratio: 0.500000
    position:         (-4.000000, 0.000000, 0.000000)
    velocity:         (-3.394266, -3.501356, -2.781526)
    angular velocity: (5.715709, 1.231096, 2.300759)
    orientation:      (w=-0.886683, i=-0.119767, j=-0.445662, k=0.028886)
  Body  2
    density:          1.000000
    shape axes ratio: (1.000000, 0.997009, 0.994027)
    initial KE ratio: 0.500000
    position:         (4.000000, 0.000000, 0.000000)
    velocity:         (-3.401391, -3.508706, -2.787365)
    angular velocity: (-0.505465, 3.331363, 5.303295)
    orientation:      (w=0.788448, i=0.196636, j=-0.189793, k=0.551056)

Preparing first step: implicit scheme, no bootstrap passes required.
First step may take longer than later steps.

First step completed in 0.234 s.

Step   100/2000    5.0% | t 5.000 | ETA 3m 22s | step 0.11s | KE 266.5203 | drift -1.56% | fluid 72.2734 | solid 194.2469
  Impulse FP iterations last/mean/max 8/7.85/8
Step   200/2000   10.0% | t 10.000 | ETA 3m 13s | step 0.11s | KE 263.8699 | drift -2.54% | fluid 72.3298 | solid 191.5401
  Impulse FP iterations last/mean/max 8/7.81/8
Step   300/2000   15.0% | t 15.000 | ETA 3m 4s | step 0.11s | KE 262.7996 | drift -2.93% | fluid 72.3633 | solid 190.4363
  Impulse FP iterations last/mean/max 8/7.82/8
Step   400/2000   20.0% | t 20.000 | ETA 2m 53s | step 0.11s | KE 263.3350 | drift -2.73% | fluid 72.3484 | solid 190.9866
  Impulse FP iterations last/mean/max 8/7.80/8
Step   500/2000   25.0% | t 25.000 | ETA 2m 43s | step 0.11s | KE 265.4996 | drift -1.93% | fluid 72.3659 | solid 193.1337
  Impulse FP iterations last/mean/max 8/7.81/8
Step   600/2000   30.0% | t 30.000 | ETA 2m 32s | step 0.12s | KE 269.3303 | drift -0.52% | fluid 72.3258 | solid 197.0045
  Impulse FP iterations last/mean/max 8/7.82/8
Step   700/2000   35.0% | t 35.000 | ETA 2m 21s | step 0.11s | KE 274.8725 | drift +1.53% | fluid 72.3010 | solid 202.5714
  Impulse FP iterations last/mean/max 8/7.82/8
Step   800/2000   40.0% | t 40.000 | ETA 2m 11s | step 0.12s | KE 282.1673 | drift +4.22% | fluid 72.3762 | solid 209.7911
  Impulse FP iterations last/mean/max 8/7.82/8
Step   900/2000   45.0% | t 45.000 | ETA 2m 0s | step 0.12s | KE 291.2964 | drift +7.59% | fluid 72.2855 | solid 219.0109
  Impulse FP iterations last/mean/max 8/7.82/8
Step  1000/2000   50.0% | t 50.000 | ETA 1m 49s | step 0.12s | KE 302.3108 | drift +11.66% | fluid 72.3650 | solid 229.9459
  Impulse FP iterations last/mean/max 8/7.81/8
Step  1100/2000   55.0% | t 55.000 | ETA 1m 37s | step 0.10s | KE 315.2957 | drift +16.46% | fluid 72.2907 | solid 243.0050
  Impulse FP iterations last/mean/max 8/7.81/8
Step  1200/2000   60.0% | t 60.000 | ETA 1m 26s | step 0.10s | KE 330.3179 | drift +22.01% | fluid 72.2125 | solid 258.1055
  Impulse FP iterations last/mean/max 8/7.80/8
Step  1300/2000   65.0% | t 65.000 | ETA 1m 15s | step 0.10s | KE 347.4257 | drift +28.33% | fluid 72.3073 | solid 275.1184
  Impulse FP iterations last/mean/max 8/7.80/8
Step  1400/2000   70.0% | t 70.000 | ETA 1m 3s | step 0.10s | KE 366.7146 | drift +35.45% | fluid 72.2638 | solid 294.4509
  Impulse FP iterations last/mean/max 8/7.79/8
Step  1500/2000   75.0% | t 75.000 | ETA 52s | step 0.11s | KE 388.1980 | drift +43.39% | fluid 72.3404 | solid 315.8576
  Impulse FP iterations last/mean/max 8/7.79/8
Step  1600/2000   80.0% | t 80.000 | ETA 42s | step 0.10s | KE 411.9816 | drift +52.17% | fluid 72.3162 | solid 339.6654
  Impulse FP iterations last/mean/max 8/7.79/8
Step  1700/2000   85.0% | t 85.000 | ETA 31s | step 0.12s | KE 438.0241 | drift +61.79% | fluid 72.4002 | solid 365.6238
  Impulse FP iterations last/mean/max 8/7.79/8
Step  1800/2000   90.0% | t 90.000 | ETA 21s | step 0.11s | KE 466.4535 | drift +72.29% | fluid 72.2555 | solid 394.1980
  Impulse FP iterations last/mean/max 8/7.79/8
Step  1900/2000   95.0% | t 95.000 | ETA 10s | step 0.10s | KE 497.1853 | drift +83.64% | fluid 72.3010 | solid 424.8843
  Impulse FP iterations last/mean/max 7/7.79/8
Solver finished successfully - good job!
Results saved successfully.

================== Run summary ==================
  Bodies:            2
  Triangles / nodes: 256 / 516
  Timesteps:         2000  (dt = 0.05)
  Simulated time:    0 -> 100
  First-step setup:  0.234 s
  Mean time/step:    0.1053 s  (excl. first step)
  Total wall time:   3m 30s
  Impulse FP iters last/mean/max: 8 / 7.784 / 8
  Approx impulse solves/step:     7.784
  Impulse start cache hits/direct: 1999 / 1
  Impulse global drift P/H:       1.537022e-8 / 3.813141e-2
  Impulse per-body max drift P/H: 1.626212e-8 / 3.000817e-3
  CPU cores:         256 available, 8 Rayon worker thread(s)
  Started:           2026-06-24 02:26:26
  Finished:          2026-06-24 02:29:57
  Output file:       /work/e643/e643/shared/multi_ellip/studies/departing_sphericity_sweep/runs/triaxial/homogeneous/triaxial_homogeneous_eps0p003_rho1_E0p5_sep8_run02_impulse_noproj/multiple_body_complete.dat
================================================
