
================ Simulation setup ================
  Run label:         /work/e643/e643/shared/multi_ellip/studies/departing_sphericity_sweep/runs/triaxial/homogeneous/triaxial_homogeneous_eps0p1_rho1_E0p5_sep8_run09_impulse_noproj/
  Started:           2026-06-24 02:30:21
  Input file:        /work/e643/e643/shared/multi_ellip/studies/departing_sphericity_sweep/runs/triaxial/homogeneous/triaxial_homogeneous_eps0p1_rho1_E0p5_sep8_run09_impulse_noproj/input.txt
  Output file:       /work/e643/e643/shared/multi_ellip/studies/departing_sphericity_sweep/runs/triaxial/homogeneous/triaxial_homogeneous_eps0p1_rho1_E0p5_sep8_run09_impulse_noproj/multiple_body_complete.dat
  Bodies:            2
  Fluid density:     1
  Mesh:              ndiv 2 -> 256 triangles / 516 nodes
  Simulated time:    0 -> 100  (dt = 0.05, ~2000 steps)
  Output cadence:    every 1 step(s)
  Output rows:       ~2001
  Progress cadence:  every 100 step(s)
  CPU cores:         256 available, 8 Rayon worker thread(s)
  Strong coupling:   disabled
  Impulse scheme:    enabled
  Hamiltonian step:  disabled
  Hamiltonian midpt: disabled
  Variational step:  disabled
  Energy projection: disabled
  Projection particular metric: Euclidean
  Fluid KE gradient: disabled  (eps = 0.001, scale = 1, linear = 1, angular = 1)
  Fluid KE discrete gradient: disabled
  Impulse pair metric correction: disabled  (mode = pair discrete-gradient, cutoff = all pairs, inner/outer = 0/0, eps = 0.001, linear scale = 1, angular scale = 0)
  Impulse metric correction: disabled  (internal load constraint = disabled)
  Impulse variational defect probe: disabled
  Impulse quadratic pressure: disabled  (scale = 1)
  Added-mass stab:   disabled
  Exact BEM geometry: disabled
  Exact singular BEM: disabled
  Legacy singular SLP diagnostic: disabled
  Phi-dot blend:     0 (off)

  Solver guidance:
    - Strong coupling: use for stiff close-coupled runs; slower but more implicit.
    - Impulse scheme: use when impulse/momentum conservation or KE drift is the focus. Recommended.
    - Added-mass stab: use for higher mesh counts (ndiv > 3) to preserve stability - deprecated.
================================================
Solver starting - good luck!

Initial state:
  Body  1
    density:          1.000000
    shape axes ratio: (1.000000, 0.909091, 0.826446)
    initial KE ratio: 0.500000
    position:         (-4.000000, 0.000000, 0.000000)
    velocity:         (-3.963543, 3.523103, -2.096131)
    angular velocity: (1.130233, -5.613090, 2.587318)
    orientation:      (w=-0.344052, i=0.518631, j=-0.568328, k=0.538195)
  Body  2
    density:          1.000000
    shape axes ratio: (1.000000, 0.909091, 0.826446)
    initial KE ratio: 0.500000
    position:         (4.000000, 0.000000, 0.000000)
    velocity:         (-3.932834, 3.495807, -2.079891)
    angular velocity: (-4.292205, -0.919025, -4.495641)
    orientation:      (w=-0.074290, i=0.303260, j=0.739307, k=-0.596607)

Preparing first step: implicit scheme, no bootstrap passes required.
First step may take longer than later steps.

First step completed in 0.282 s.

Step   100/2000    5.0% | t 5.000 | ETA 4m 1s | step 0.14s | KE 265.2207 | drift -2.13% | fluid 69.2435 | solid 195.9773
  Impulse FP iterations last/mean/max 9/8.99/9
Step   200/2000   10.0% | t 10.000 | ETA 3m 51s | step 0.14s | KE 263.0982 | drift -2.91% | fluid 73.0460 | solid 190.0522
  Impulse FP iterations last/mean/max 9/8.98/9
Step   300/2000   15.0% | t 15.000 | ETA 3m 38s | step 0.13s | KE 262.1458 | drift -3.26% | fluid 72.7042 | solid 189.4416
  Impulse FP iterations last/mean/max 9/8.98/9
Step   400/2000   20.0% | t 20.000 | ETA 3m 26s | step 0.12s | KE 261.7304 | drift -3.41% | fluid 70.9163 | solid 190.8142
  Impulse FP iterations last/mean/max 9/8.98/9
Step   500/2000   25.0% | t 25.000 | ETA 3m 13s | step 0.13s | KE 261.5480 | drift -3.48% | fluid 71.9778 | solid 189.5702
  Impulse FP iterations last/mean/max 9/8.98/9
Step   600/2000   30.0% | t 30.000 | ETA 3m 0s | step 0.12s | KE 261.4376 | drift -3.52% | fluid 69.8463 | solid 191.5912
  Impulse FP iterations last/mean/max 9/8.98/9
Step   700/2000   35.0% | t 35.000 | ETA 2m 46s | step 0.12s | KE 261.3201 | drift -3.57% | fluid 71.8467 | solid 189.4734
  Impulse FP iterations last/mean/max 9/8.98/9
Step   800/2000   40.0% | t 40.000 | ETA 2m 34s | step 0.13s | KE 261.2246 | drift -3.60% | fluid 69.1370 | solid 192.0876
  Impulse FP iterations last/mean/max 9/8.98/9
Step   900/2000   45.0% | t 45.000 | ETA 2m 21s | step 0.13s | KE 261.0754 | drift -3.66% | fluid 73.3390 | solid 187.7364
  Impulse FP iterations last/mean/max 9/8.98/9
Step  1000/2000   50.0% | t 50.000 | ETA 2m 8s | step 0.13s | KE 261.1244 | drift -3.64% | fluid 69.3479 | solid 191.7766
  Impulse FP iterations last/mean/max 9/8.98/9
Step  1100/2000   55.0% | t 55.000 | ETA 1m 55s | step 0.11s | KE 261.1148 | drift -3.64% | fluid 71.6760 | solid 189.4388
  Impulse FP iterations last/mean/max 8/8.98/10
Step  1200/2000   60.0% | t 60.000 | ETA 1m 42s | step 0.13s | KE 261.0827 | drift -3.65% | fluid 69.4496 | solid 191.6331
  Impulse FP iterations last/mean/max 9/8.98/10
Step  1300/2000   65.0% | t 65.000 | ETA 1m 29s | step 0.13s | KE 260.8981 | drift -3.72% | fluid 72.9689 | solid 187.9292
  Impulse FP iterations last/mean/max 9/8.98/10
Step  1400/2000   70.0% | t 70.000 | ETA 1m 16s | step 0.13s | KE 261.0570 | drift -3.66% | fluid 69.8783 | solid 191.1787
  Impulse FP iterations last/mean/max 9/8.98/10
Step  1500/2000   75.0% | t 75.000 | ETA 1m 4s | step 0.13s | KE 261.0835 | drift -3.65% | fluid 70.8599 | solid 190.2236
  Impulse FP iterations last/mean/max 9/8.98/10
Step  1600/2000   80.0% | t 80.000 | ETA 51s | step 0.14s | KE 261.0449 | drift -3.67% | fluid 70.7226 | solid 190.3223
  Impulse FP iterations last/mean/max 9/8.98/10
Step  1700/2000   85.0% | t 85.000 | ETA 38s | step 0.13s | KE 260.9890 | drift -3.69% | fluid 71.6845 | solid 189.3045
  Impulse FP iterations last/mean/max 9/8.98/10
Step  1800/2000   90.0% | t 90.000 | ETA 25s | step 0.12s | KE 261.0382 | drift -3.67% | fluid 70.6669 | solid 190.3714
  Impulse FP iterations last/mean/max 9/8.98/10
Step  1900/2000   95.0% | t 95.000 | ETA 12s | step 0.10s | KE 261.0910 | drift -3.65% | fluid 70.7611 | solid 190.3299
  Impulse FP iterations last/mean/max 9/8.98/10
Solver finished successfully - good job!
Results saved successfully.

================== Run summary ==================
  Bodies:            2
  Triangles / nodes: 256 / 516
  Timesteps:         2000  (dt = 0.05)
  Simulated time:    0 -> 100
  First-step setup:  0.282 s
  Mean time/step:    0.1264 s  (excl. first step)
  Total wall time:   4m 12s
  Impulse FP iters last/mean/max: 9 / 8.980 / 10
  Approx impulse solves/step:     8.981
  Impulse start cache hits/direct: 1999 / 1
  Impulse global drift P/H:       5.331335e-9 / 1.471436e-2
  Impulse per-body max drift P/H: 9.716743e-9 / 1.924685e-3
  CPU cores:         256 available, 8 Rayon worker thread(s)
  Started:           2026-06-24 02:30:21
  Finished:          2026-06-24 02:34:34
  Output file:       /work/e643/e643/shared/multi_ellip/studies/departing_sphericity_sweep/runs/triaxial/homogeneous/triaxial_homogeneous_eps0p1_rho1_E0p5_sep8_run09_impulse_noproj/multiple_body_complete.dat
================================================
