
================ Simulation setup ================
  Run label:         /work/e643/e643/shared/multi_ellip/studies/two_body_paper_sweeps/runs/ellipsoid_1_0p8_0p6/ellipsoid_1_0p8_0p6_rho0p03_E11_sep8_run04_impulse_noproj/
  Started:           2026-06-24 02:49:21
  Input file:        /work/e643/e643/shared/multi_ellip/studies/two_body_paper_sweeps/runs/ellipsoid_1_0p8_0p6/ellipsoid_1_0p8_0p6_rho0p03_E11_sep8_run04_impulse_noproj/input.txt
  Output file:       /work/e643/e643/shared/multi_ellip/studies/two_body_paper_sweeps/runs/ellipsoid_1_0p8_0p6/ellipsoid_1_0p8_0p6_rho0p03_E11_sep8_run04_impulse_noproj/multiple_body_complete.dat
  Bodies:            2
  Fluid density:     1
  Mesh:              ndiv 2 -> 256 triangles / 516 nodes
  Simulated time:    0 -> 100  (dt = 0.05, ~2000 steps)
  Output cadence:    every 1 step(s)
  Output rows:       ~2001
  Progress cadence:  every 100 step(s)
  CPU cores:         256 available, 8 Rayon worker thread(s)
  Strong coupling:   disabled
  Impulse scheme:    enabled
  Hamiltonian step:  disabled
  Hamiltonian midpt: disabled
  Variational step:  disabled
  Energy projection: disabled
  Projection particular metric: Euclidean
  Fluid KE gradient: disabled  (eps = 0.001, scale = 1, linear = 1, angular = 1)
  Fluid KE discrete gradient: disabled
  Impulse pair metric correction: disabled  (mode = pair discrete-gradient, cutoff = all pairs, inner/outer = 0/0, eps = 0.001, linear scale = 1, angular scale = 0)
  Impulse metric correction: disabled  (internal load constraint = disabled)
  Impulse variational defect probe: disabled
  Impulse quadratic pressure: disabled  (scale = 1)
  Added-mass stab:   disabled
  Exact BEM geometry: disabled
  Exact singular BEM: disabled
  Legacy singular SLP diagnostic: disabled
  Phi-dot blend:     0 (off)

  Solver guidance:
    - Strong coupling: use for stiff close-coupled runs; slower but more implicit.
    - Impulse scheme: use when impulse/momentum conservation or KE drift is the focus. Recommended.
    - Added-mass stab: use for higher mesh counts (ndiv > 3) to preserve stability - deprecated.
================================================
Solver starting - good luck!

Initial state:
  Body  1
    density:          0.030000
    shape axes ratio: (1.000000, 0.800000, 0.600000)
    initial KE ratio: 11.000000
    position:         (-4.000000, 0.000000, 0.000000)
    velocity:         (0.852126, 0.973914, 0.350967)
    angular velocity: (2.203515, 1.908079, 5.566164)
    orientation:      (w=0.298922, i=0.791383, j=-0.300843, k=-0.440287)
  Body  2
    density:          0.030000
    shape axes ratio: (1.000000, 0.800000, 0.600000)
    initial KE ratio: 11.000000
    position:         (4.000000, 0.000000, 0.000000)
    velocity:         (0.880347, 1.006169, 0.362591)
    angular velocity: (-0.224726, 0.214682, -6.275494)
    orientation:      (w=0.017448, i=0.359014, j=0.091831, k=-0.928640)

Preparing first step: implicit scheme, no bootstrap passes required.
First step may take longer than later steps.

First step completed in 0.495 s.

Step   100/2000    5.0% | t 5.000 | ETA 12m 43s | step 0.43s | KE 12.3303 | drift +11.84% | fluid 9.6809 | solid 2.6494
  Impulse FP iterations last/mean/max 30/28.97/30
Step   200/2000   10.0% | t 10.000 | ETA 12m 6s | step 0.45s | KE 12.6790 | drift +15.00% | fluid 9.9000 | solid 2.7790
  Impulse FP iterations last/mean/max 30/28.98/30
Step   300/2000   15.0% | t 15.000 | ETA 11m 18s | step 0.36s | KE 12.6658 | drift +14.88% | fluid 10.3453 | solid 2.3205
  Impulse FP iterations last/mean/max 25/28.84/30
Step   400/2000   20.0% | t 20.000 | ETA 10m 39s | step 0.44s | KE 12.5175 | drift +13.54% | fluid 9.0855 | solid 3.4319
  Impulse FP iterations last/mean/max 30/28.92/30
Step   500/2000   25.0% | t 25.000 | ETA 9m 58s | step 0.38s | KE 12.4547 | drift +12.97% | fluid 10.3534 | solid 2.1014
  Impulse FP iterations last/mean/max 27/28.93/30
Step   600/2000   30.0% | t 30.000 | ETA 9m 17s | step 0.37s | KE 12.4490 | drift +12.92% | fluid 10.2369 | solid 2.2121
  Impulse FP iterations last/mean/max 27/28.92/30
Step   700/2000   35.0% | t 35.000 | ETA 8m 37s | step 0.35s | KE 12.3975 | drift +12.45% | fluid 10.3116 | solid 2.0860
  Impulse FP iterations last/mean/max 27/28.91/30
Step   800/2000   40.0% | t 40.000 | ETA 7m 57s | step 0.41s | KE 12.3370 | drift +11.90% | fluid 9.4588 | solid 2.8782
  Impulse FP iterations last/mean/max 30/28.91/30
Step   900/2000   45.0% | t 45.000 | ETA 7m 17s | step 0.31s | KE 12.4082 | drift +12.55% | fluid 9.7228 | solid 2.6854
  Impulse FP iterations last/mean/max 24/28.94/30
Step  1000/2000   50.0% | t 50.000 | ETA 6m 34s | step 0.36s | KE 12.3440 | drift +11.96% | fluid 9.4035 | solid 2.9405
  Impulse FP iterations last/mean/max 30/28.96/30
Step  1100/2000   55.0% | t 55.000 | ETA 5m 54s | step 0.35s | KE 12.4044 | drift +12.51% | fluid 10.1461 | solid 2.2583
  Impulse FP iterations last/mean/max 27/28.98/30
Step  1200/2000   60.0% | t 60.000 | ETA 5m 15s | step 0.41s | KE 12.3547 | drift +12.06% | fluid 9.2389 | solid 3.1159
  Impulse FP iterations last/mean/max 30/28.99/30
Step  1300/2000   65.0% | t 65.000 | ETA 4m 36s | step 0.40s | KE 12.3275 | drift +11.82% | fluid 9.5612 | solid 2.7663
  Impulse FP iterations last/mean/max 30/29.01/30
Step  1400/2000   70.0% | t 70.000 | ETA 3m 57s | step 0.41s | KE 12.3541 | drift +12.06% | fluid 9.7243 | solid 2.6298
  Impulse FP iterations last/mean/max 30/29.03/30
Step  1500/2000   75.0% | t 75.000 | ETA 3m 17s | step 0.43s | KE 12.3064 | drift +11.62% | fluid 9.3872 | solid 2.9192
  Impulse FP iterations last/mean/max 30/29.01/30
Step  1600/2000   80.0% | t 80.000 | ETA 2m 38s | step 0.41s | KE 12.3055 | drift +11.62% | fluid 9.7942 | solid 2.5113
  Impulse FP iterations last/mean/max 30/29.02/30
Step  1700/2000   85.0% | t 85.000 | ETA 1m 58s | step 0.41s | KE 12.3091 | drift +11.65% | fluid 9.8858 | solid 2.4233
  Impulse FP iterations last/mean/max 30/29.01/30
Step  1800/2000   90.0% | t 90.000 | ETA 1m 19s | step 0.39s | KE 12.2589 | drift +11.19% | fluid 9.9033 | solid 2.3556
  Impulse FP iterations last/mean/max 27/29.01/30
Step  1900/2000   95.0% | t 95.000 | ETA 39s | step 0.38s | KE 12.3092 | drift +11.65% | fluid 9.8318 | solid 2.4774
  Impulse FP iterations last/mean/max 29/29.02/30
Solver finished successfully - good job!
Results saved successfully.

================== Run summary ==================
  Bodies:            2
  Triangles / nodes: 256 / 516
  Timesteps:         2000  (dt = 0.05)
  Simulated time:    0 -> 100
  First-step setup:  0.495 s
  Mean time/step:    0.3960 s  (excl. first step)
  Total wall time:   13m 12s
  Impulse FP iters last/mean/max: 30 / 29.030 / 30
  Approx impulse solves/step:     29.030
  Impulse start cache hits/direct: 1999 / 1
  Impulse global drift P/H:       3.368169e-7 / 4.975779e-3
  Impulse per-body max drift P/H: 6.023849e-7 / 2.342300e-3
  CPU cores:         256 available, 8 Rayon worker thread(s)
  Started:           2026-06-24 02:49:21
  Finished:          2026-06-24 03:02:34
  Output file:       /work/e643/e643/shared/multi_ellip/studies/two_body_paper_sweeps/runs/ellipsoid_1_0p8_0p6/ellipsoid_1_0p8_0p6_rho0p03_E11_sep8_run04_impulse_noproj/multiple_body_complete.dat
================================================
