
================ Simulation setup ================
  Run label:         /work/e643/e643/shared/multi_ellip/studies/two_body_paper_sweeps/runs/spheroid_1_0p7_0p7/spheroid_1_0p7_0p7_rho10_E4_sep5_run02_impulse_noproj/
  Started:           2026-06-22 19:23:18
  Input file:        /work/e643/e643/shared/multi_ellip/studies/two_body_paper_sweeps/runs/spheroid_1_0p7_0p7/spheroid_1_0p7_0p7_rho10_E4_sep5_run02_impulse_noproj/input.txt
  Output file:       /work/e643/e643/shared/multi_ellip/studies/two_body_paper_sweeps/runs/spheroid_1_0p7_0p7/spheroid_1_0p7_0p7_rho10_E4_sep5_run02_impulse_noproj/multiple_body_complete.dat
  Bodies:            2
  Fluid density:     1
  Mesh:              ndiv 2 -> 256 triangles / 516 nodes
  Simulated time:    0 -> 100  (dt = 0.05, ~2000 steps)
  Output cadence:    every 1 step(s)
  Output rows:       ~2001
  Progress cadence:  every 100 step(s)
  CPU cores:         256 available, 8 Rayon worker thread(s)
  Strong coupling:   disabled
  Impulse scheme:    enabled
  Hamiltonian step:  disabled
  Hamiltonian midpt: disabled
  Variational step:  disabled
  Energy projection: disabled
  Projection particular metric: Euclidean
  Fluid KE gradient: disabled  (eps = 0.001, scale = 1, linear = 1, angular = 1)
  Fluid KE discrete gradient: disabled
  Impulse pair metric correction: disabled  (mode = pair discrete-gradient, cutoff = all pairs, inner/outer = 0/0, eps = 0.001, linear scale = 1, angular scale = 0)
  Impulse metric correction: disabled  (internal load constraint = disabled)
  Impulse variational defect probe: disabled
  Impulse quadratic pressure: disabled  (scale = 1)
  Added-mass stab:   disabled
  Exact BEM geometry: disabled
  Exact singular BEM: disabled
  Legacy singular SLP diagnostic: disabled
  Phi-dot blend:     0 (off)

  Solver guidance:
    - Strong coupling: use for stiff close-coupled runs; slower but more implicit.
    - Impulse scheme: use when impulse/momentum conservation or KE drift is the focus. Recommended.
    - Added-mass stab: use for higher mesh counts (ndiv > 3) to preserve stability - deprecated.
================================================
Solver starting - good luck!

Initial state:
  Body  1
    density:          10.000000
    shape axes ratio: (1.000000, 0.700000, 0.700000)
    initial KE ratio: 4.000000
    position:         (-2.500000, 0.000000, 0.000000)
    velocity:         (0.227274, -1.999644, 0.338311)
    angular velocity: (3.718815, 4.790579, 1.642919)
    orientation:      (w=0.577350, i=0.577350, j=0.577350, k=0.000000)
  Body  2
    density:          10.000000
    shape axes ratio: (1.000000, 0.700000, 0.700000)
    initial KE ratio: 4.000000
    position:         (2.500000, 0.000000, 0.000000)
    velocity:         (0.207539, -1.826009, 0.308934)
    angular velocity: (-5.540116, 2.279035, -1.895133)
    orientation:      (w=0.577350, i=-0.577350, j=0.000000, k=0.577350)

Preparing first step: implicit scheme, no bootstrap passes required.
First step may take longer than later steps.

First step completed in 10.796 s.

Step   100/2000    5.0% | t 5.000 | ETA 2m 55s | step 0.09s | KE 925.5282 | drift +0.04% | fluid 13.9757 | solid 911.5524
  Impulse FP iterations last/mean/max 6/6.51/8
Step   200/2000   10.0% | t 10.000 | ETA 2m 45s | step 0.09s | KE 925.4520 | drift +0.03% | fluid 12.0886 | solid 913.3634
  Impulse FP iterations last/mean/max 7/6.47/8
Step   300/2000   15.0% | t 15.000 | ETA 2m 36s | step 0.08s | KE 924.9179 | drift -0.02% | fluid 13.8384 | solid 911.0795
  Impulse FP iterations last/mean/max 6/6.47/8
Step   400/2000   20.0% | t 20.000 | ETA 2m 27s | step 0.09s | KE 924.3156 | drift -0.09% | fluid 13.2488 | solid 911.0668
  Impulse FP iterations last/mean/max 6/6.46/8
Step   500/2000   25.0% | t 25.000 | ETA 2m 18s | step 0.09s | KE 923.7139 | drift -0.16% | fluid 14.1003 | solid 909.6136
  Impulse FP iterations last/mean/max 6/6.45/8
Step   600/2000   30.0% | t 30.000 | ETA 2m 9s | step 0.09s | KE 923.2760 | drift -0.20% | fluid 14.0047 | solid 909.2713
  Impulse FP iterations last/mean/max 6/6.44/8
Step   700/2000   35.0% | t 35.000 | ETA 1m 59s | step 0.09s | KE 922.9564 | drift -0.24% | fluid 13.7818 | solid 909.1747
  Impulse FP iterations last/mean/max 6/6.43/8
Step   800/2000   40.0% | t 40.000 | ETA 1m 50s | step 0.09s | KE 922.7481 | drift -0.26% | fluid 14.1921 | solid 908.5560
  Impulse FP iterations last/mean/max 6/6.42/8
Step   900/2000   45.0% | t 45.000 | ETA 1m 41s | step 0.09s | KE 922.6091 | drift -0.27% | fluid 13.5990 | solid 909.0101
  Impulse FP iterations last/mean/max 6/6.41/8
Step  1000/2000   50.0% | t 50.000 | ETA 1m 32s | step 0.09s | KE 922.5190 | drift -0.28% | fluid 14.4651 | solid 908.0539
  Impulse FP iterations last/mean/max 6/6.41/8
Step  1100/2000   55.0% | t 55.000 | ETA 1m 22s | step 0.08s | KE 922.4586 | drift -0.29% | fluid 13.8180 | solid 908.6405
  Impulse FP iterations last/mean/max 6/6.40/8
Step  1200/2000   60.0% | t 60.000 | ETA 1m 13s | step 0.09s | KE 922.4181 | drift -0.30% | fluid 14.9734 | solid 907.4447
  Impulse FP iterations last/mean/max 6/6.40/8
Step  1300/2000   65.0% | t 65.000 | ETA 1m 4s | step 0.08s | KE 922.3910 | drift -0.30% | fluid 14.2882 | solid 908.1028
  Impulse FP iterations last/mean/max 6/6.40/8
Step  1400/2000   70.0% | t 70.000 | ETA 55s | step 0.09s | KE 922.3743 | drift -0.30% | fluid 15.4941 | solid 906.8802
  Impulse FP iterations last/mean/max 6/6.40/8
Step  1500/2000   75.0% | t 75.000 | ETA 45s | step 0.11s | KE 922.3665 | drift -0.30% | fluid 14.6414 | solid 907.7252
  Impulse FP iterations last/mean/max 8/6.39/8
Step  1600/2000   80.0% | t 80.000 | ETA 36s | step 0.10s | KE 922.3668 | drift -0.30% | fluid 15.6772 | solid 906.6896
  Impulse FP iterations last/mean/max 7/6.39/8
Step  1700/2000   85.0% | t 85.000 | ETA 27s | step 0.10s | KE 922.3742 | drift -0.30% | fluid 14.5631 | solid 907.8111
  Impulse FP iterations last/mean/max 7/6.39/8
Step  1800/2000   90.0% | t 90.000 | ETA 18s | step 0.10s | KE 922.3870 | drift -0.30% | fluid 15.3607 | solid 907.0263
  Impulse FP iterations last/mean/max 7/6.39/8
Step  1900/2000   95.0% | t 95.000 | ETA 9s | step 0.09s | KE 922.4035 | drift -0.30% | fluid 14.0617 | solid 908.3418
  Impulse FP iterations last/mean/max 7/6.39/8
Solver finished successfully - good job!
Results saved successfully.

================== Run summary ==================
  Bodies:            2
  Triangles / nodes: 256 / 516
  Timesteps:         2000  (dt = 0.05)
  Simulated time:    0 -> 100
  First-step setup:  10.796 s
  Mean time/step:    0.0909 s  (excl. first step)
  Total wall time:   3m 12s
  Impulse FP iters last/mean/max: 6 / 6.389 / 8
  Approx impulse solves/step:     6.390
  Impulse start cache hits/direct: 1999 / 1
  Impulse global drift P/H:       1.325441e-9 / 3.706142e-3
  Impulse per-body max drift P/H: 5.626155e-9 / 4.291896e-3
  CPU cores:         256 available, 8 Rayon worker thread(s)
  Started:           2026-06-22 19:23:18
  Finished:          2026-06-22 19:26:31
  Output file:       /work/e643/e643/shared/multi_ellip/studies/two_body_paper_sweeps/runs/spheroid_1_0p7_0p7/spheroid_1_0p7_0p7_rho10_E4_sep5_run02_impulse_noproj/multiple_body_complete.dat
================================================
