
================ Simulation setup ================
  Run label:         /work/e643/e643/shared/multi_ellip/studies/two_body_paper_sweeps/runs/spheroid_1_0p7_0p7/spheroid_1_0p7_0p7_rho1_E0p2_sep8_run04_impulse_noproj/
  Started:           2026-06-24 01:29:36
  Input file:        /work/e643/e643/shared/multi_ellip/studies/two_body_paper_sweeps/runs/spheroid_1_0p7_0p7/spheroid_1_0p7_0p7_rho1_E0p2_sep8_run04_impulse_noproj/input.txt
  Output file:       /work/e643/e643/shared/multi_ellip/studies/two_body_paper_sweeps/runs/spheroid_1_0p7_0p7/spheroid_1_0p7_0p7_rho1_E0p2_sep8_run04_impulse_noproj/multiple_body_complete.dat
  Bodies:            2
  Fluid density:     1
  Mesh:              ndiv 2 -> 256 triangles / 516 nodes
  Simulated time:    0 -> 100  (dt = 0.05, ~2000 steps)
  Output cadence:    every 1 step(s)
  Output rows:       ~2001
  Progress cadence:  every 100 step(s)
  CPU cores:         256 available, 8 Rayon worker thread(s)
  Strong coupling:   disabled
  Impulse scheme:    enabled
  Hamiltonian step:  disabled
  Hamiltonian midpt: disabled
  Variational step:  disabled
  Energy projection: disabled
  Projection particular metric: Euclidean
  Fluid KE gradient: disabled  (eps = 0.001, scale = 1, linear = 1, angular = 1)
  Fluid KE discrete gradient: disabled
  Impulse pair metric correction: disabled  (mode = pair discrete-gradient, cutoff = all pairs, inner/outer = 0/0, eps = 0.001, linear scale = 1, angular scale = 0)
  Impulse metric correction: disabled  (internal load constraint = disabled)
  Impulse variational defect probe: disabled
  Impulse quadratic pressure: disabled  (scale = 1)
  Added-mass stab:   disabled
  Exact BEM geometry: disabled
  Exact singular BEM: disabled
  Legacy singular SLP diagnostic: disabled
  Phi-dot blend:     0 (off)

  Solver guidance:
    - Strong coupling: use for stiff close-coupled runs; slower but more implicit.
    - Impulse scheme: use when impulse/momentum conservation or KE drift is the focus. Recommended.
    - Added-mass stab: use for higher mesh counts (ndiv > 3) to preserve stability - deprecated.
================================================
Solver starting - good luck!

Initial state:
  Body  1
    density:          1.000000
    shape axes ratio: (1.000000, 0.700000, 0.700000)
    initial KE ratio: 0.200000
    position:         (-4.000000, 0.000000, 0.000000)
    velocity:         (3.257191, -4.623832, 7.096164)
    angular velocity: (-3.871195, 0.703049, 4.898775)
    orientation:      (w=0.160329, i=0.629054, j=0.350314, k=-0.675178)
  Body  2
    density:          1.000000
    shape axes ratio: (1.000000, 0.700000, 0.700000)
    initial KE ratio: 0.200000
    position:         (4.000000, 0.000000, 0.000000)
    velocity:         (3.393293, -4.817039, 7.392678)
    angular velocity: (2.534649, 5.652387, -1.050951)
    orientation:      (w=-0.002310, i=-0.975841, j=0.171830, k=-0.134918)

Preparing first step: implicit scheme, no bootstrap passes required.
First step may take longer than later steps.

First step completed in 0.362 s.

Step   100/2000    5.0% | t 5.000 | ETA 4m 49s | step 0.14s | KE 641.4391 | drift +6.21% | fluid 172.5483 | solid 468.8908
  Impulse FP iterations last/mean/max 10/10.46/11
Step   200/2000   10.0% | t 10.000 | ETA 4m 31s | step 0.15s | KE 650.1614 | drift +7.65% | fluid 177.5320 | solid 472.6294
  Impulse FP iterations last/mean/max 11/10.44/11
Step   300/2000   15.0% | t 15.000 | ETA 4m 13s | step 0.13s | KE 651.2388 | drift +7.83% | fluid 169.2520 | solid 481.9868
  Impulse FP iterations last/mean/max 10/10.40/11
Step   400/2000   20.0% | t 20.000 | ETA 3m 57s | step 0.15s | KE 649.6109 | drift +7.56% | fluid 181.9259 | solid 467.6850
  Impulse FP iterations last/mean/max 10/10.38/11
Step   500/2000   25.0% | t 25.000 | ETA 3m 42s | step 0.13s | KE 650.1267 | drift +7.64% | fluid 172.5113 | solid 477.6153
  Impulse FP iterations last/mean/max 10/10.38/11
Step   600/2000   30.0% | t 30.000 | ETA 3m 27s | step 0.15s | KE 647.8736 | drift +7.27% | fluid 190.4870 | solid 457.3866
  Impulse FP iterations last/mean/max 11/10.37/11
Step   700/2000   35.0% | t 35.000 | ETA 3m 12s | step 0.15s | KE 648.4189 | drift +7.36% | fluid 179.6769 | solid 468.7420
  Impulse FP iterations last/mean/max 10/10.36/11
Step   800/2000   40.0% | t 40.000 | ETA 2m 57s | step 0.14s | KE 646.7203 | drift +7.08% | fluid 194.6904 | solid 452.0299
  Impulse FP iterations last/mean/max 10/10.36/11
Step   900/2000   45.0% | t 45.000 | ETA 2m 42s | step 0.14s | KE 647.5319 | drift +7.21% | fluid 184.7566 | solid 462.7753
  Impulse FP iterations last/mean/max 10/10.35/11
Step  1000/2000   50.0% | t 50.000 | ETA 2m 27s | step 0.15s | KE 647.0654 | drift +7.14% | fluid 190.7930 | solid 456.2724
  Impulse FP iterations last/mean/max 11/10.36/11
Step  1100/2000   55.0% | t 55.000 | ETA 2m 13s | step 0.15s | KE 647.8345 | drift +7.26% | fluid 185.2965 | solid 462.5380
  Impulse FP iterations last/mean/max 10/10.35/11
Step  1200/2000   60.0% | t 60.000 | ETA 1m 58s | step 0.15s | KE 648.4508 | drift +7.37% | fluid 182.0201 | solid 466.4307
  Impulse FP iterations last/mean/max 10/10.35/11
Step  1300/2000   65.0% | t 65.000 | ETA 1m 43s | step 0.15s | KE 648.5060 | drift +7.38% | fluid 184.2321 | solid 464.2738
  Impulse FP iterations last/mean/max 10/10.35/11
Step  1400/2000   70.0% | t 70.000 | ETA 1m 28s | step 0.13s | KE 649.7967 | drift +7.59% | fluid 172.8983 | solid 476.8984
  Impulse FP iterations last/mean/max 10/10.35/11
Step  1500/2000   75.0% | t 75.000 | ETA 1m 13s | step 0.14s | KE 648.9411 | drift +7.45% | fluid 182.7555 | solid 466.1856
  Impulse FP iterations last/mean/max 11/10.35/11
Step  1600/2000   80.0% | t 80.000 | ETA 57s | step 0.10s | KE 650.5316 | drift +7.71% | fluid 168.0054 | solid 482.5261
  Impulse FP iterations last/mean/max 9/10.35/11
Step  1700/2000   85.0% | t 85.000 | ETA 43s | step 0.12s | KE 649.1537 | drift +7.48% | fluid 181.5315 | solid 467.6222
  Impulse FP iterations last/mean/max 11/10.34/11
Step  1800/2000   90.0% | t 90.000 | ETA 28s | step 0.10s | KE 650.5295 | drift +7.71% | fluid 168.0829 | solid 482.4466
  Impulse FP iterations last/mean/max 9/10.34/11
Step  1900/2000   95.0% | t 95.000 | ETA 14s | step 0.10s | KE 649.2256 | drift +7.49% | fluid 180.4792 | solid 468.7464
  Impulse FP iterations last/mean/max 10/10.34/11
Solver finished successfully - good job!
Results saved successfully.

================== Run summary ==================
  Bodies:            2
  Triangles / nodes: 256 / 516
  Timesteps:         2000  (dt = 0.05)
  Simulated time:    0 -> 100
  First-step setup:  0.362 s
  Mean time/step:    0.1377 s  (excl. first step)
  Total wall time:   4m 35s
  Impulse FP iters last/mean/max: 10 / 10.341 / 11
  Approx impulse solves/step:     10.341
  Impulse start cache hits/direct: 1999 / 1
  Impulse global drift P/H:       1.260552e-8 / 3.256186e-2
  Impulse per-body max drift P/H: 1.913780e-8 / 4.037986e-3
  CPU cores:         256 available, 8 Rayon worker thread(s)
  Started:           2026-06-24 01:29:36
  Finished:          2026-06-24 01:34:12
  Output file:       /work/e643/e643/shared/multi_ellip/studies/two_body_paper_sweeps/runs/spheroid_1_0p7_0p7/spheroid_1_0p7_0p7_rho1_E0p2_sep8_run04_impulse_noproj/multiple_body_complete.dat
================================================
