
================ Simulation setup ================
  Run label:         /work/e643/e643/shared/multi_ellip/studies/two_body_paper_sweeps/runs/ellipsoid_1_0p8_0p6/ellipsoid_1_0p8_0p6_rho1_E0p2_sep5_run05_impulse_noproj/
  Started:           2026-06-24 01:33:28
  Input file:        /work/e643/e643/shared/multi_ellip/studies/two_body_paper_sweeps/runs/ellipsoid_1_0p8_0p6/ellipsoid_1_0p8_0p6_rho1_E0p2_sep5_run05_impulse_noproj/input.txt
  Output file:       /work/e643/e643/shared/multi_ellip/studies/two_body_paper_sweeps/runs/ellipsoid_1_0p8_0p6/ellipsoid_1_0p8_0p6_rho1_E0p2_sep5_run05_impulse_noproj/multiple_body_complete.dat
  Bodies:            2
  Fluid density:     1
  Mesh:              ndiv 2 -> 256 triangles / 516 nodes
  Simulated time:    0 -> 100  (dt = 0.05, ~2000 steps)
  Output cadence:    every 1 step(s)
  Output rows:       ~2001
  Progress cadence:  every 100 step(s)
  CPU cores:         256 available, 8 Rayon worker thread(s)
  Strong coupling:   disabled
  Impulse scheme:    enabled
  Hamiltonian step:  disabled
  Hamiltonian midpt: disabled
  Variational step:  disabled
  Energy projection: disabled
  Projection particular metric: Euclidean
  Fluid KE gradient: disabled  (eps = 0.001, scale = 1, linear = 1, angular = 1)
  Fluid KE discrete gradient: disabled
  Impulse pair metric correction: disabled  (mode = pair discrete-gradient, cutoff = all pairs, inner/outer = 0/0, eps = 0.001, linear scale = 1, angular scale = 0)
  Impulse metric correction: disabled  (internal load constraint = disabled)
  Impulse variational defect probe: disabled
  Impulse quadratic pressure: disabled  (scale = 1)
  Added-mass stab:   disabled
  Exact BEM geometry: disabled
  Exact singular BEM: disabled
  Legacy singular SLP diagnostic: disabled
  Phi-dot blend:     0 (off)

  Solver guidance:
    - Strong coupling: use for stiff close-coupled runs; slower but more implicit.
    - Impulse scheme: use when impulse/momentum conservation or KE drift is the focus. Recommended.
    - Added-mass stab: use for higher mesh counts (ndiv > 3) to preserve stability - deprecated.
================================================
Solver starting - good luck!

Initial state:
  Body  1
    density:          1.000000
    shape axes ratio: (1.000000, 0.800000, 0.600000)
    initial KE ratio: 0.200000
    position:         (-2.500000, 0.000000, 0.000000)
    velocity:         (-2.103296, 3.307055, -7.283541)
    angular velocity: (-5.765273, -2.340023, -0.874266)
    orientation:      (w=0.057435, i=-0.312622, j=-0.930676, k=-0.181141)
  Body  2
    density:          1.000000
    shape axes ratio: (1.000000, 0.800000, 0.600000)
    initial KE ratio: 0.200000
    position:         (2.500000, 0.000000, 0.000000)
    velocity:         (-2.328788, 3.661601, -8.064404)
    angular velocity: (-3.986616, -3.359247, 3.507246)
    orientation:      (w=0.109797, i=-0.010620, j=-0.817427, k=-0.565372)

Preparing first step: implicit scheme, no bootstrap passes required.
First step may take longer than later steps.

First step completed in 0.338 s.

Step   100/2000    5.0% | t 5.000 | ETA 5m 24s | step 0.16s | KE 638.8958 | drift +0.33% | fluid 241.2660 | solid 397.6298
  Impulse FP iterations last/mean/max 12/11.98/13
Step   200/2000   10.0% | t 10.000 | ETA 5m 3s | step 0.17s | KE 639.4604 | drift +0.42% | fluid 253.2276 | solid 386.2327
  Impulse FP iterations last/mean/max 12/11.87/13
Step   300/2000   15.0% | t 15.000 | ETA 4m 46s | step 0.15s | KE 642.0415 | drift +0.83% | fluid 241.4041 | solid 400.6374
  Impulse FP iterations last/mean/max 11/11.80/13
Step   400/2000   20.0% | t 20.000 | ETA 4m 28s | step 0.18s | KE 641.0767 | drift +0.68% | fluid 238.0910 | solid 402.9857
  Impulse FP iterations last/mean/max 12/11.76/13
Step   500/2000   25.0% | t 25.000 | ETA 4m 12s | step 0.17s | KE 640.5938 | drift +0.60% | fluid 234.8576 | solid 405.7362
  Impulse FP iterations last/mean/max 12/11.75/13
Step   600/2000   30.0% | t 30.000 | ETA 3m 55s | step 0.16s | KE 639.8247 | drift +0.48% | fluid 254.6211 | solid 385.2036
  Impulse FP iterations last/mean/max 11/11.72/13
Step   700/2000   35.0% | t 35.000 | ETA 3m 38s | step 0.17s | KE 640.7853 | drift +0.63% | fluid 241.4668 | solid 399.3185
  Impulse FP iterations last/mean/max 12/11.71/13
Step   800/2000   40.0% | t 40.000 | ETA 3m 21s | step 0.17s | KE 639.5305 | drift +0.43% | fluid 255.8977 | solid 383.6329
  Impulse FP iterations last/mean/max 12/11.71/13
Step   900/2000   45.0% | t 45.000 | ETA 3m 4s | step 0.18s | KE 640.6934 | drift +0.62% | fluid 233.9246 | solid 406.7688
  Impulse FP iterations last/mean/max 12/11.71/13
Step  1000/2000   50.0% | t 50.000 | ETA 2m 47s | step 0.15s | KE 642.5910 | drift +0.91% | fluid 233.5104 | solid 409.0806
  Impulse FP iterations last/mean/max 11/11.71/13
Step  1100/2000   55.0% | t 55.000 | ETA 2m 31s | step 0.18s | KE 640.8895 | drift +0.65% | fluid 235.3843 | solid 405.5052
  Impulse FP iterations last/mean/max 12/11.71/13
Step  1200/2000   60.0% | t 60.000 | ETA 2m 14s | step 0.16s | KE 639.5350 | drift +0.43% | fluid 253.1422 | solid 386.3928
  Impulse FP iterations last/mean/max 11/11.69/13
Step  1300/2000   65.0% | t 65.000 | ETA 1m 57s | step 0.17s | KE 640.9643 | drift +0.66% | fluid 240.0856 | solid 400.8787
  Impulse FP iterations last/mean/max 12/11.69/13
Step  1400/2000   70.0% | t 70.000 | ETA 1m 40s | step 0.16s | KE 640.1456 | drift +0.53% | fluid 252.1678 | solid 387.9778
  Impulse FP iterations last/mean/max 11/11.69/13
Step  1500/2000   75.0% | t 75.000 | ETA 1m 23s | step 0.13s | KE 641.0436 | drift +0.67% | fluid 232.4138 | solid 408.6297
  Impulse FP iterations last/mean/max 11/11.68/13
Step  1600/2000   80.0% | t 80.000 | ETA 1m 5s | step 0.12s | KE 640.8542 | drift +0.64% | fluid 237.8690 | solid 402.9852
  Impulse FP iterations last/mean/max 12/11.68/13
Step  1700/2000   85.0% | t 85.000 | ETA 48s | step 0.12s | KE 641.9168 | drift +0.81% | fluid 243.7075 | solid 398.2092
  Impulse FP iterations last/mean/max 12/11.68/13
Step  1800/2000   90.0% | t 90.000 | ETA 31s | step 0.12s | KE 639.8946 | drift +0.49% | fluid 252.3809 | solid 387.5137
  Impulse FP iterations last/mean/max 11/11.68/13
Step  1900/2000   95.0% | t 95.000 | ETA 15s | step 0.12s | KE 640.2966 | drift +0.55% | fluid 243.2268 | solid 397.0698
  Impulse FP iterations last/mean/max 12/11.67/13
Solver finished successfully - good job!
Results saved successfully.

================== Run summary ==================
  Bodies:            2
  Triangles / nodes: 256 / 516
  Timesteps:         2000  (dt = 0.05)
  Simulated time:    0 -> 100
  First-step setup:  0.338 s
  Mean time/step:    0.1555 s  (excl. first step)
  Total wall time:   5m 11s
  Impulse FP iters last/mean/max: 12 / 11.671 / 13
  Approx impulse solves/step:     11.672
  Impulse start cache hits/direct: 1999 / 1
  Impulse global drift P/H:       1.393688e-8 / 7.103403e-3
  Impulse per-body max drift P/H: 1.614888e-8 / 1.131710e-3
  CPU cores:         256 available, 8 Rayon worker thread(s)
  Started:           2026-06-24 01:33:28
  Finished:          2026-06-24 01:38:40
  Output file:       /work/e643/e643/shared/multi_ellip/studies/two_body_paper_sweeps/runs/ellipsoid_1_0p8_0p6/ellipsoid_1_0p8_0p6_rho1_E0p2_sep5_run05_impulse_noproj/multiple_body_complete.dat
================================================
