
================ Simulation setup ================
  Run label:         /work/e643/e643/shared/multi_ellip/studies/two_body_paper_sweeps/runs/ellipsoid_1_0p8_0p6/ellipsoid_1_0p8_0p6_rho0p3_E1p5_sep8_run04_impulse_noproj/
  Started:           2026-06-24 01:51:05
  Input file:        /work/e643/e643/shared/multi_ellip/studies/two_body_paper_sweeps/runs/ellipsoid_1_0p8_0p6/ellipsoid_1_0p8_0p6_rho0p3_E1p5_sep8_run04_impulse_noproj/input.txt
  Output file:       /work/e643/e643/shared/multi_ellip/studies/two_body_paper_sweeps/runs/ellipsoid_1_0p8_0p6/ellipsoid_1_0p8_0p6_rho0p3_E1p5_sep8_run04_impulse_noproj/multiple_body_complete.dat
  Bodies:            2
  Fluid density:     1
  Mesh:              ndiv 2 -> 256 triangles / 516 nodes
  Simulated time:    0 -> 100  (dt = 0.05, ~2000 steps)
  Output cadence:    every 1 step(s)
  Output rows:       ~2001
  Progress cadence:  every 100 step(s)
  CPU cores:         256 available, 8 Rayon worker thread(s)
  Strong coupling:   disabled
  Impulse scheme:    enabled
  Hamiltonian step:  disabled
  Hamiltonian midpt: disabled
  Variational step:  disabled
  Energy projection: disabled
  Projection particular metric: Euclidean
  Fluid KE gradient: disabled  (eps = 0.001, scale = 1, linear = 1, angular = 1)
  Fluid KE discrete gradient: disabled
  Impulse pair metric correction: disabled  (mode = pair discrete-gradient, cutoff = all pairs, inner/outer = 0/0, eps = 0.001, linear scale = 1, angular scale = 0)
  Impulse metric correction: disabled  (internal load constraint = disabled)
  Impulse variational defect probe: disabled
  Impulse quadratic pressure: disabled  (scale = 1)
  Added-mass stab:   disabled
  Exact BEM geometry: disabled
  Exact singular BEM: disabled
  Legacy singular SLP diagnostic: disabled
  Phi-dot blend:     0 (off)

  Solver guidance:
    - Strong coupling: use for stiff close-coupled runs; slower but more implicit.
    - Impulse scheme: use when impulse/momentum conservation or KE drift is the focus. Recommended.
    - Added-mass stab: use for higher mesh counts (ndiv > 3) to preserve stability - deprecated.
================================================
Solver starting - good luck!

Initial state:
  Body  1
    density:          0.300000
    shape axes ratio: (1.000000, 0.800000, 0.600000)
    initial KE ratio: 1.500000
    position:         (-4.000000, 0.000000, 0.000000)
    velocity:         (-1.029678, -3.435891, 0.935797)
    angular velocity: (1.535970, -0.439914, -6.076651)
    orientation:      (w=-0.442720, i=-0.159630, j=0.732288, k=0.492211)
  Body  2
    density:          0.300000
    shape axes ratio: (1.000000, 0.800000, 0.600000)
    initial KE ratio: 1.500000
    position:         (4.000000, 0.000000, 0.000000)
    velocity:         (-0.889334, -2.967581, 0.808248)
    angular velocity: (-4.276660, -4.593398, -0.298823)
    orientation:      (w=-0.150095, i=-0.730025, j=-0.553203, k=0.372158)

Preparing first step: implicit scheme, no bootstrap passes required.
First step may take longer than later steps.

First step completed in 0.396 s.

Step   100/2000    5.0% | t 5.000 | ETA 6m 39s | step 0.22s | KE 68.3802 | drift +2.98% | fluid 32.0547 | solid 36.3255
  Impulse FP iterations last/mean/max 14/14.60/16
Step   200/2000   10.0% | t 10.000 | ETA 5m 57s | step 0.18s | KE 68.5268 | drift +3.20% | fluid 31.3619 | solid 37.1650
  Impulse FP iterations last/mean/max 15/14.60/16
Step   300/2000   15.0% | t 15.000 | ETA 5m 28s | step 0.18s | KE 67.8550 | drift +2.19% | fluid 30.5358 | solid 37.3192
  Impulse FP iterations last/mean/max 13/14.54/17
Step   400/2000   20.0% | t 20.000 | ETA 5m 8s | step 0.21s | KE 67.3977 | drift +1.50% | fluid 30.8682 | solid 36.5295
  Impulse FP iterations last/mean/max 15/14.50/17
Step   500/2000   25.0% | t 25.000 | ETA 4m 51s | step 0.20s | KE 67.6203 | drift +1.83% | fluid 30.0069 | solid 37.6135
  Impulse FP iterations last/mean/max 14/14.47/17
Step   600/2000   30.0% | t 30.000 | ETA 4m 34s | step 0.21s | KE 67.6379 | drift +1.86% | fluid 32.2724 | solid 35.3655
  Impulse FP iterations last/mean/max 15/14.46/17
Step   700/2000   35.0% | t 35.000 | ETA 4m 15s | step 0.20s | KE 67.4034 | drift +1.51% | fluid 32.7061 | solid 34.6973
  Impulse FP iterations last/mean/max 14/14.43/17
Step   800/2000   40.0% | t 40.000 | ETA 3m 56s | step 0.20s | KE 67.2932 | drift +1.34% | fluid 31.7530 | solid 35.5402
  Impulse FP iterations last/mean/max 14/14.43/17
Step   900/2000   45.0% | t 45.000 | ETA 3m 37s | step 0.20s | KE 67.6267 | drift +1.84% | fluid 31.7379 | solid 35.8888
  Impulse FP iterations last/mean/max 14/14.41/17
Step  1000/2000   50.0% | t 50.000 | ETA 3m 17s | step 0.19s | KE 67.5581 | drift +1.74% | fluid 31.5566 | solid 36.0016
  Impulse FP iterations last/mean/max 14/14.39/17
Step  1100/2000   55.0% | t 55.000 | ETA 2m 58s | step 0.21s | KE 67.2474 | drift +1.27% | fluid 29.6515 | solid 37.5959
  Impulse FP iterations last/mean/max 15/14.38/17
Step  1200/2000   60.0% | t 60.000 | ETA 2m 38s | step 0.17s | KE 67.3174 | drift +1.38% | fluid 29.9793 | solid 37.3381
  Impulse FP iterations last/mean/max 14/14.36/17
Step  1300/2000   65.0% | t 65.000 | ETA 2m 18s | step 0.22s | KE 67.5412 | drift +1.71% | fluid 28.9156 | solid 38.6257
  Impulse FP iterations last/mean/max 15/14.35/17
Step  1400/2000   70.0% | t 70.000 | ETA 1m 59s | step 0.19s | KE 67.5609 | drift +1.74% | fluid 29.5626 | solid 37.9983
  Impulse FP iterations last/mean/max 14/14.34/17
Step  1500/2000   75.0% | t 75.000 | ETA 1m 39s | step 0.20s | KE 67.2744 | drift +1.31% | fluid 29.2820 | solid 37.9924
  Impulse FP iterations last/mean/max 15/14.33/17
Step  1600/2000   80.0% | t 80.000 | ETA 1m 19s | step 0.18s | KE 67.3080 | drift +1.36% | fluid 31.4853 | solid 35.8227
  Impulse FP iterations last/mean/max 14/14.33/17
Step  1700/2000   85.0% | t 85.000 | ETA 59s | step 0.21s | KE 67.5384 | drift +1.71% | fluid 30.3056 | solid 37.2328
  Impulse FP iterations last/mean/max 15/14.33/17
Step  1800/2000   90.0% | t 90.000 | ETA 39s | step 0.23s | KE 67.6038 | drift +1.81% | fluid 31.9179 | solid 35.6858
  Impulse FP iterations last/mean/max 15/14.33/17
Step  1900/2000   95.0% | t 95.000 | ETA 19s | step 0.21s | KE 67.3310 | drift +1.40% | fluid 31.2266 | solid 36.1043
  Impulse FP iterations last/mean/max 15/14.33/17
Solver finished successfully - good job!
Results saved successfully.

================== Run summary ==================
  Bodies:            2
  Triangles / nodes: 256 / 516
  Timesteps:         2000  (dt = 0.05)
  Simulated time:    0 -> 100
  First-step setup:  0.396 s
  Mean time/step:    0.1990 s  (excl. first step)
  Total wall time:   6m 38s
  Impulse FP iters last/mean/max: 14 / 14.323 / 17
  Approx impulse solves/step:     14.324
  Impulse start cache hits/direct: 1999 / 1
  Impulse global drift P/H:       3.136085e-8 / 2.382986e-2
  Impulse per-body max drift P/H: 3.651407e-8 / 2.600033e-3
  CPU cores:         256 available, 8 Rayon worker thread(s)
  Started:           2026-06-24 01:51:05
  Finished:          2026-06-24 01:57:43
  Output file:       /work/e643/e643/shared/multi_ellip/studies/two_body_paper_sweeps/runs/ellipsoid_1_0p8_0p6/ellipsoid_1_0p8_0p6_rho0p3_E1p5_sep8_run04_impulse_noproj/multiple_body_complete.dat
================================================
