
================ Simulation setup ================
  Run label:         /work/e643/e643/shared/multi_ellip/studies/departing_sphericity_sweep/runs/spheroid_oblate/homogeneous/spheroid_oblate_homogeneous_eps0_rho1_E0p5_sep8_run03_impulse_noproj/
  Started:           2026-06-24 02:23:12
  Input file:        /work/e643/e643/shared/multi_ellip/studies/departing_sphericity_sweep/runs/spheroid_oblate/homogeneous/spheroid_oblate_homogeneous_eps0_rho1_E0p5_sep8_run03_impulse_noproj/input.txt
  Output file:       /work/e643/e643/shared/multi_ellip/studies/departing_sphericity_sweep/runs/spheroid_oblate/homogeneous/spheroid_oblate_homogeneous_eps0_rho1_E0p5_sep8_run03_impulse_noproj/multiple_body_complete.dat
  Bodies:            2
  Fluid density:     1
  Mesh:              ndiv 2 -> 256 triangles / 516 nodes
  Simulated time:    0 -> 100  (dt = 0.05, ~2000 steps)
  Output cadence:    every 1 step(s)
  Output rows:       ~2001
  Progress cadence:  every 100 step(s)
  CPU cores:         256 available, 8 Rayon worker thread(s)
  Strong coupling:   disabled
  Impulse scheme:    enabled
  Hamiltonian step:  disabled
  Hamiltonian midpt: disabled
  Variational step:  disabled
  Energy projection: disabled
  Projection particular metric: Euclidean
  Fluid KE gradient: disabled  (eps = 0.001, scale = 1, linear = 1, angular = 1)
  Fluid KE discrete gradient: disabled
  Impulse pair metric correction: disabled  (mode = pair discrete-gradient, cutoff = all pairs, inner/outer = 0/0, eps = 0.001, linear scale = 1, angular scale = 0)
  Impulse metric correction: disabled  (internal load constraint = disabled)
  Impulse variational defect probe: disabled
  Impulse quadratic pressure: disabled  (scale = 1)
  Added-mass stab:   disabled
  Exact BEM geometry: disabled
  Exact singular BEM: disabled
  Legacy singular SLP diagnostic: disabled
  Phi-dot blend:     0 (off)

  Solver guidance:
    - Strong coupling: use for stiff close-coupled runs; slower but more implicit.
    - Impulse scheme: use when impulse/momentum conservation or KE drift is the focus. Recommended.
    - Added-mass stab: use for higher mesh counts (ndiv > 3) to preserve stability - deprecated.
================================================
Solver starting - good luck!

Initial state:
  Body  1
    density:          1.000000
    shape axes ratio: (1.000000, 1.000000, 1.000000)
    initial KE ratio: 0.500000
    position:         (-4.000000, 0.000000, 0.000000)
    velocity:         (0.260391, -1.581936, 5.386317)
    angular velocity: (4.813580, -3.531190, 1.959225)
    orientation:      (w=-0.869585, i=0.145815, j=0.152856, k=0.446312)
  Body  2
    density:          1.000000
    shape axes ratio: (1.000000, 1.000000, 1.000000)
    initial KE ratio: 0.500000
    position:         (4.000000, 0.000000, 0.000000)
    velocity:         (0.260391, -1.581936, 5.386317)
    angular velocity: (1.586108, 5.545702, -2.491560)
    orientation:      (w=-0.359817, i=0.488917, j=-0.752413, k=-0.255668)

Preparing first step: implicit scheme, no bootstrap passes required.
First step may take longer than later steps.

First step completed in 3.710 s.

Step   100/2000    5.0% | t 5.000 | ETA 1m 42s | step 0.05s | KE 271.3380 | drift +0.11% | fluid 72.6113 | solid 198.7267
  Impulse FP iterations last/mean/max 4/4.00/4
Step   200/2000   10.0% | t 10.000 | ETA 1m 37s | step 0.06s | KE 271.6521 | drift +0.22% | fluid 72.6113 | solid 199.0408
  Impulse FP iterations last/mean/max 4/4.04/5
Step   300/2000   15.0% | t 15.000 | ETA 1m 31s | step 0.06s | KE 271.9938 | drift +0.35% | fluid 72.6113 | solid 199.3825
  Impulse FP iterations last/mean/max 4/4.04/5
Step   400/2000   20.0% | t 20.000 | ETA 1m 26s | step 0.05s | KE 272.3631 | drift +0.48% | fluid 72.6113 | solid 199.7518
  Impulse FP iterations last/mean/max 4/4.03/5
Step   500/2000   25.0% | t 25.000 | ETA 1m 20s | step 0.05s | KE 272.7600 | drift +0.63% | fluid 72.6113 | solid 200.1487
  Impulse FP iterations last/mean/max 4/4.03/5
Step   600/2000   30.0% | t 30.000 | ETA 1m 14s | step 0.05s | KE 273.1845 | drift +0.79% | fluid 72.6113 | solid 200.5732
  Impulse FP iterations last/mean/max 4/4.03/5
Step   700/2000   35.0% | t 35.000 | ETA 1m 8s | step 0.05s | KE 273.6366 | drift +0.95% | fluid 72.6113 | solid 201.0252
  Impulse FP iterations last/mean/max 4/4.03/5
Step   800/2000   40.0% | t 40.000 | ETA 1m 2s | step 0.05s | KE 274.1161 | drift +1.13% | fluid 72.6113 | solid 201.5048
  Impulse FP iterations last/mean/max 4/4.03/5
Step   900/2000   45.0% | t 45.000 | ETA 56s | step 0.05s | KE 274.6234 | drift +1.32% | fluid 72.6113 | solid 202.0120
  Impulse FP iterations last/mean/max 4/4.02/5
Step  1000/2000   50.0% | t 50.000 | ETA 51s | step 0.05s | KE 275.1582 | drift +1.52% | fluid 72.6113 | solid 202.5468
  Impulse FP iterations last/mean/max 4/4.02/5
Step  1100/2000   55.0% | t 55.000 | ETA 46s | step 0.05s | KE 275.7206 | drift +1.72% | fluid 72.6113 | solid 203.1093
  Impulse FP iterations last/mean/max 4/4.02/5
Step  1200/2000   60.0% | t 60.000 | ETA 41s | step 0.05s | KE 276.3106 | drift +1.94% | fluid 72.6113 | solid 203.6993
  Impulse FP iterations last/mean/max 4/4.02/5
Step  1300/2000   65.0% | t 65.000 | ETA 36s | step 0.05s | KE 276.9281 | drift +2.17% | fluid 72.6113 | solid 204.3168
  Impulse FP iterations last/mean/max 4/4.02/5
Step  1400/2000   70.0% | t 70.000 | ETA 31s | step 0.05s | KE 277.5733 | drift +2.41% | fluid 72.6113 | solid 204.9620
  Impulse FP iterations last/mean/max 4/4.02/5
Step  1500/2000   75.0% | t 75.000 | ETA 26s | step 0.06s | KE 278.2460 | drift +2.65% | fluid 72.6113 | solid 205.6346
  Impulse FP iterations last/mean/max 4/4.02/5
Step  1600/2000   80.0% | t 80.000 | ETA 21s | step 0.06s | KE 278.9464 | drift +2.91% | fluid 72.6113 | solid 206.3350
  Impulse FP iterations last/mean/max 4/4.01/5
Step  1700/2000   85.0% | t 85.000 | ETA 15s | step 0.05s | KE 279.6742 | drift +3.18% | fluid 72.6113 | solid 207.0629
  Impulse FP iterations last/mean/max 4/4.01/5
Step  1800/2000   90.0% | t 90.000 | ETA 10s | step 0.05s | KE 280.4297 | drift +3.46% | fluid 72.6113 | solid 207.8184
  Impulse FP iterations last/mean/max 4/4.01/5
Step  1900/2000   95.0% | t 95.000 | ETA 5s | step 0.05s | KE 281.2128 | drift +3.75% | fluid 72.6113 | solid 208.6015
  Impulse FP iterations last/mean/max 4/4.01/5
Solver finished successfully - good job!
Results saved successfully.

================== Run summary ==================
  Bodies:            2
  Triangles / nodes: 256 / 516
  Timesteps:         2000  (dt = 0.05)
  Simulated time:    0 -> 100
  First-step setup:  3.710 s
  Mean time/step:    0.0529 s  (excl. first step)
  Total wall time:   1m 49s
  Impulse FP iters last/mean/max: 4 / 4.012 / 5
  Approx impulse solves/step:     4.012
  Impulse start cache hits/direct: 1999 / 1
  Impulse global drift P/H:       3.024408e-9 / 4.787743e-3
  Impulse per-body max drift P/H: 3.338437e-9 / 2.240299e-4
  CPU cores:         256 available, 8 Rayon worker thread(s)
  Started:           2026-06-24 02:23:12
  Finished:          2026-06-24 02:25:03
  Output file:       /work/e643/e643/shared/multi_ellip/studies/departing_sphericity_sweep/runs/spheroid_oblate/homogeneous/spheroid_oblate_homogeneous_eps0_rho1_E0p5_sep8_run03_impulse_noproj/multiple_body_complete.dat
================================================
