
================ Simulation setup ================
  Run label:         /work/e643/e643/shared/multi_ellip/studies/two_body_paper_sweeps/runs/spheroid_1_0p7_0p7/spheroid_1_0p7_0p7_rho4_E1p5_sep11_run04_impulse_noproj/
  Started:           2026-06-24 01:25:47
  Input file:        /work/e643/e643/shared/multi_ellip/studies/two_body_paper_sweeps/runs/spheroid_1_0p7_0p7/spheroid_1_0p7_0p7_rho4_E1p5_sep11_run04_impulse_noproj/input.txt
  Output file:       /work/e643/e643/shared/multi_ellip/studies/two_body_paper_sweeps/runs/spheroid_1_0p7_0p7/spheroid_1_0p7_0p7_rho4_E1p5_sep11_run04_impulse_noproj/multiple_body_complete.dat
  Bodies:            2
  Fluid density:     1
  Mesh:              ndiv 2 -> 256 triangles / 516 nodes
  Simulated time:    0 -> 100  (dt = 0.05, ~2000 steps)
  Output cadence:    every 1 step(s)
  Output rows:       ~2001
  Progress cadence:  every 100 step(s)
  CPU cores:         256 available, 8 Rayon worker thread(s)
  Strong coupling:   disabled
  Impulse scheme:    enabled
  Hamiltonian step:  disabled
  Hamiltonian midpt: disabled
  Variational step:  disabled
  Energy projection: disabled
  Projection particular metric: Euclidean
  Fluid KE gradient: disabled  (eps = 0.001, scale = 1, linear = 1, angular = 1)
  Fluid KE discrete gradient: disabled
  Impulse pair metric correction: disabled  (mode = pair discrete-gradient, cutoff = all pairs, inner/outer = 0/0, eps = 0.001, linear scale = 1, angular scale = 0)
  Impulse metric correction: disabled  (internal load constraint = disabled)
  Impulse variational defect probe: disabled
  Impulse quadratic pressure: disabled  (scale = 1)
  Added-mass stab:   disabled
  Exact BEM geometry: disabled
  Exact singular BEM: disabled
  Legacy singular SLP diagnostic: disabled
  Phi-dot blend:     0 (off)

  Solver guidance:
    - Strong coupling: use for stiff close-coupled runs; slower but more implicit.
    - Impulse scheme: use when impulse/momentum conservation or KE drift is the focus. Recommended.
    - Added-mass stab: use for higher mesh counts (ndiv > 3) to preserve stability - deprecated.
================================================
Solver starting - good luck!

Initial state:
  Body  1
    density:          4.000000
    shape axes ratio: (1.000000, 0.700000, 0.700000)
    initial KE ratio: 1.500000
    position:         (-5.500000, 0.000000, 0.000000)
    velocity:         (0.558222, 3.223471, 0.264312)
    angular velocity: (4.108363, -0.074608, -4.753337)
    orientation:      (w=-0.446482, i=0.787697, j=0.382773, k=-0.183501)
  Body  2
    density:          4.000000
    shape axes ratio: (1.000000, 0.700000, 0.700000)
    initial KE ratio: 1.500000
    position:         (5.500000, 0.000000, 0.000000)
    velocity:         (0.603457, 3.484685, 0.285731)
    angular velocity: (-0.524055, 5.927062, -2.018345)
    orientation:      (w=0.169096, i=-0.789337, j=-0.015901, k=0.590001)

Preparing first step: implicit scheme, no bootstrap passes required.
First step may take longer than later steps.

First step completed in 0.213 s.

Step   100/2000    5.0% | t 5.000 | ETA 2m 52s | step 0.10s | KE 525.6558 | drift +0.12% | fluid 30.1613 | solid 495.4946
  Impulse FP iterations last/mean/max 7/7.08/8
Step   200/2000   10.0% | t 10.000 | ETA 2m 53s | step 0.09s | KE 526.3303 | drift +0.25% | fluid 36.2821 | solid 490.0482
  Impulse FP iterations last/mean/max 7/7.10/8
Step   300/2000   15.0% | t 15.000 | ETA 2m 45s | step 0.10s | KE 527.3019 | drift +0.44% | fluid 32.7214 | solid 494.5805
  Impulse FP iterations last/mean/max 7/7.09/8
Step   400/2000   20.0% | t 20.000 | ETA 2m 37s | step 0.10s | KE 528.0222 | drift +0.57% | fluid 28.7181 | solid 499.3041
  Impulse FP iterations last/mean/max 7/7.08/8
Step   500/2000   25.0% | t 25.000 | ETA 2m 28s | step 0.11s | KE 528.2885 | drift +0.62% | fluid 34.7227 | solid 493.5658
  Impulse FP iterations last/mean/max 8/7.09/8
Step   600/2000   30.0% | t 30.000 | ETA 2m 16s | step 0.09s | KE 528.6153 | drift +0.69% | fluid 35.8925 | solid 492.7228
  Impulse FP iterations last/mean/max 7/7.08/8
Step   700/2000   35.0% | t 35.000 | ETA 2m 5s | step 0.09s | KE 528.9412 | drift +0.75% | fluid 30.6330 | solid 498.3082
  Impulse FP iterations last/mean/max 7/7.08/8
Step   800/2000   40.0% | t 40.000 | ETA 1m 54s | step 0.10s | KE 529.1043 | drift +0.78% | fluid 30.4064 | solid 498.6979
  Impulse FP iterations last/mean/max 7/7.08/8
Step   900/2000   45.0% | t 45.000 | ETA 1m 45s | step 0.10s | KE 529.1311 | drift +0.78% | fluid 35.1608 | solid 493.9704
  Impulse FP iterations last/mean/max 7/7.08/8
Step  1000/2000   50.0% | t 50.000 | ETA 1m 36s | step 0.08s | KE 529.1599 | drift +0.79% | fluid 35.3356 | solid 493.8243
  Impulse FP iterations last/mean/max 6/7.08/8
Step  1100/2000   55.0% | t 55.000 | ETA 1m 27s | step 0.10s | KE 529.4277 | drift +0.84% | fluid 30.8486 | solid 498.5791
  Impulse FP iterations last/mean/max 7/7.07/8
Step  1200/2000   60.0% | t 60.000 | ETA 1m 17s | step 0.09s | KE 529.6425 | drift +0.88% | fluid 31.2259 | solid 498.4166
  Impulse FP iterations last/mean/max 7/7.08/8
Step  1300/2000   65.0% | t 65.000 | ETA 1m 8s | step 0.11s | KE 529.6447 | drift +0.88% | fluid 32.6738 | solid 496.9710
  Impulse FP iterations last/mean/max 7/7.08/8
Step  1400/2000   70.0% | t 70.000 | ETA 58s | step 0.11s | KE 529.6311 | drift +0.88% | fluid 32.9149 | solid 496.7163
  Impulse FP iterations last/mean/max 7/7.08/8
Step  1500/2000   75.0% | t 75.000 | ETA 48s | step 0.10s | KE 529.6819 | drift +0.89% | fluid 35.7295 | solid 493.9524
  Impulse FP iterations last/mean/max 7/7.08/8
Step  1600/2000   80.0% | t 80.000 | ETA 39s | step 0.10s | KE 529.8688 | drift +0.92% | fluid 32.9095 | solid 496.9593
  Impulse FP iterations last/mean/max 7/7.08/8
Step  1700/2000   85.0% | t 85.000 | ETA 29s | step 0.10s | KE 529.9588 | drift +0.94% | fluid 28.8911 | solid 501.0677
  Impulse FP iterations last/mean/max 7/7.07/8
Step  1800/2000   90.0% | t 90.000 | ETA 19s | step 0.10s | KE 529.8421 | drift +0.92% | fluid 33.4786 | solid 496.3635
  Impulse FP iterations last/mean/max 7/7.08/8
Step  1900/2000   95.0% | t 95.000 | ETA 9s | step 0.10s | KE 529.7860 | drift +0.91% | fluid 36.4006 | solid 493.3855
  Impulse FP iterations last/mean/max 7/7.07/8
Solver finished successfully - good job!
Results saved successfully.

================== Run summary ==================
  Bodies:            2
  Triangles / nodes: 256 / 516
  Timesteps:         2000  (dt = 0.05)
  Simulated time:    0 -> 100
  First-step setup:  0.213 s
  Mean time/step:    0.0986 s  (excl. first step)
  Total wall time:   3m 17s
  Impulse FP iters last/mean/max: 7 / 7.074 / 8
  Approx impulse solves/step:     7.074
  Impulse start cache hits/direct: 1999 / 1
  Impulse global drift P/H:       5.312103e-9 / 1.897104e-2
  Impulse per-body max drift P/H: 1.147682e-8 / 1.713421e-3
  CPU cores:         256 available, 8 Rayon worker thread(s)
  Started:           2026-06-24 01:25:47
  Finished:          2026-06-24 01:29:05
  Output file:       /work/e643/e643/shared/multi_ellip/studies/two_body_paper_sweeps/runs/spheroid_1_0p7_0p7/spheroid_1_0p7_0p7_rho4_E1p5_sep11_run04_impulse_noproj/multiple_body_complete.dat
================================================
