
================ Simulation setup ================
  Run label:         /work/e643/e643/shared/multi_ellip/studies/departing_sphericity_sweep/runs/spheroid_oblate/homogeneous/spheroid_oblate_homogeneous_eps0p001_rho1_E0p5_sep8_run03_impulse_noproj/
  Started:           2026-06-24 02:26:24
  Input file:        /work/e643/e643/shared/multi_ellip/studies/departing_sphericity_sweep/runs/spheroid_oblate/homogeneous/spheroid_oblate_homogeneous_eps0p001_rho1_E0p5_sep8_run03_impulse_noproj/input.txt
  Output file:       /work/e643/e643/shared/multi_ellip/studies/departing_sphericity_sweep/runs/spheroid_oblate/homogeneous/spheroid_oblate_homogeneous_eps0p001_rho1_E0p5_sep8_run03_impulse_noproj/multiple_body_complete.dat
  Bodies:            2
  Fluid density:     1
  Mesh:              ndiv 2 -> 256 triangles / 516 nodes
  Simulated time:    0 -> 100  (dt = 0.05, ~2000 steps)
  Output cadence:    every 1 step(s)
  Output rows:       ~2001
  Progress cadence:  every 100 step(s)
  CPU cores:         256 available, 8 Rayon worker thread(s)
  Strong coupling:   disabled
  Impulse scheme:    enabled
  Hamiltonian step:  disabled
  Hamiltonian midpt: disabled
  Variational step:  disabled
  Energy projection: disabled
  Projection particular metric: Euclidean
  Fluid KE gradient: disabled  (eps = 0.001, scale = 1, linear = 1, angular = 1)
  Fluid KE discrete gradient: disabled
  Impulse pair metric correction: disabled  (mode = pair discrete-gradient, cutoff = all pairs, inner/outer = 0/0, eps = 0.001, linear scale = 1, angular scale = 0)
  Impulse metric correction: disabled  (internal load constraint = disabled)
  Impulse variational defect probe: disabled
  Impulse quadratic pressure: disabled  (scale = 1)
  Added-mass stab:   disabled
  Exact BEM geometry: disabled
  Exact singular BEM: disabled
  Legacy singular SLP diagnostic: disabled
  Phi-dot blend:     0 (off)

  Solver guidance:
    - Strong coupling: use for stiff close-coupled runs; slower but more implicit.
    - Impulse scheme: use when impulse/momentum conservation or KE drift is the focus. Recommended.
    - Added-mass stab: use for higher mesh counts (ndiv > 3) to preserve stability - deprecated.
================================================
Solver starting - good luck!

Initial state:
  Body  1
    density:          1.000000
    shape axes ratio: (1.000000, 1.000000, 0.997006)
    initial KE ratio: 0.500000
    position:         (-4.000000, 0.000000, 0.000000)
    velocity:         (0.075491, 5.622646, 0.120659)
    angular velocity: (1.732247, 1.345771, -5.887838)
    orientation:      (w=-0.126958, i=-0.257498, j=-0.665422, k=0.689050)
  Body  2
    density:          1.000000
    shape axes ratio: (1.000000, 1.000000, 0.997006)
    initial KE ratio: 0.500000
    position:         (4.000000, 0.000000, 0.000000)
    velocity:         (0.075397, 5.615632, 0.120509)
    angular velocity: (-4.219530, 4.463280, -1.324053)
    orientation:      (w=-0.816450, i=-0.135865, j=-0.064330, k=-0.557505)

Preparing first step: implicit scheme, no bootstrap passes required.
First step may take longer than later steps.

First step completed in 0.188 s.

Step   100/2000    5.0% | t 5.000 | ETA 2m 42s | step 0.09s | KE 271.3677 | drift +0.08% | fluid 72.7038 | solid 198.6638
  Impulse FP iterations last/mean/max 6/6.96/8
Step   200/2000   10.0% | t 10.000 | ETA 2m 39s | step 0.08s | KE 271.3380 | drift +0.07% | fluid 72.7033 | solid 198.6347
  Impulse FP iterations last/mean/max 6/6.94/8
Step   300/2000   15.0% | t 15.000 | ETA 2m 33s | step 0.08s | KE 271.0695 | drift -0.03% | fluid 72.7040 | solid 198.3656
  Impulse FP iterations last/mean/max 6/6.94/8
Step   400/2000   20.0% | t 20.000 | ETA 2m 25s | step 0.08s | KE 270.5675 | drift -0.22% | fluid 72.7059 | solid 197.8616
  Impulse FP iterations last/mean/max 6/6.93/8
Step   500/2000   25.0% | t 25.000 | ETA 2m 16s | step 0.09s | KE 269.8433 | drift -0.48% | fluid 72.6967 | solid 197.1466
  Impulse FP iterations last/mean/max 7/6.94/8
Step   600/2000   30.0% | t 30.000 | ETA 2m 7s | step 0.09s | KE 268.9133 | drift -0.83% | fluid 72.6583 | solid 196.2550
  Impulse FP iterations last/mean/max 7/6.95/8
Step   700/2000   35.0% | t 35.000 | ETA 1m 58s | step 0.09s | KE 267.7877 | drift -1.24% | fluid 72.6772 | solid 195.1105
  Impulse FP iterations last/mean/max 7/6.95/8
Step   800/2000   40.0% | t 40.000 | ETA 1m 50s | step 0.10s | KE 266.5021 | drift -1.72% | fluid 72.6629 | solid 193.8392
  Impulse FP iterations last/mean/max 7/6.97/8
Step   900/2000   45.0% | t 45.000 | ETA 1m 41s | step 0.10s | KE 265.0765 | drift -2.24% | fluid 72.7091 | solid 192.3674
  Impulse FP iterations last/mean/max 7/6.98/8
Step  1000/2000   50.0% | t 50.000 | ETA 1m 32s | step 0.10s | KE 263.5557 | drift -2.80% | fluid 72.7047 | solid 190.8511
  Impulse FP iterations last/mean/max 8/6.99/8
Step  1100/2000   55.0% | t 55.000 | ETA 1m 23s | step 0.10s | KE 261.9785 | drift -3.39% | fluid 72.6810 | solid 189.2975
  Impulse FP iterations last/mean/max 7/7.01/8
Step  1200/2000   60.0% | t 60.000 | ETA 1m 14s | step 0.09s | KE 260.3802 | drift -3.97% | fluid 72.7397 | solid 187.6405
  Impulse FP iterations last/mean/max 7/7.02/8
Step  1300/2000   65.0% | t 65.000 | ETA 1m 5s | step 0.09s | KE 258.8232 | drift -4.55% | fluid 72.7408 | solid 186.0824
  Impulse FP iterations last/mean/max 7/7.03/8
Step  1400/2000   70.0% | t 70.000 | ETA 56s | step 0.10s | KE 257.3611 | drift -5.09% | fluid 72.7032 | solid 184.6579
  Impulse FP iterations last/mean/max 7/7.05/8
Step  1500/2000   75.0% | t 75.000 | ETA 46s | step 0.09s | KE 256.0471 | drift -5.57% | fluid 72.7027 | solid 183.3444
  Impulse FP iterations last/mean/max 7/7.07/8
Step  1600/2000   80.0% | t 80.000 | ETA 37s | step 0.10s | KE 254.9502 | drift -5.98% | fluid 72.6941 | solid 182.2561
  Impulse FP iterations last/mean/max 7/7.09/8
Step  1700/2000   85.0% | t 85.000 | ETA 28s | step 0.10s | KE 254.1369 | drift -6.28% | fluid 72.6838 | solid 181.4531
  Impulse FP iterations last/mean/max 8/7.10/8
Step  1800/2000   90.0% | t 90.000 | ETA 18s | step 0.11s | KE 253.6835 | drift -6.44% | fluid 72.7259 | solid 180.9576
  Impulse FP iterations last/mean/max 8/7.12/8
Step  1900/2000   95.0% | t 95.000 | ETA 9s | step 0.09s | KE 253.6747 | drift -6.45% | fluid 72.6468 | solid 181.0279
  Impulse FP iterations last/mean/max 7/7.14/8
Solver finished successfully - good job!
Results saved successfully.

================== Run summary ==================
  Bodies:            2
  Triangles / nodes: 256 / 516
  Timesteps:         2000  (dt = 0.05)
  Simulated time:    0 -> 100
  First-step setup:  0.188 s
  Mean time/step:    0.0948 s  (excl. first step)
  Total wall time:   3m 9s
  Impulse FP iters last/mean/max: 8 / 7.157 / 8
  Approx impulse solves/step:     7.158
  Impulse start cache hits/direct: 1999 / 1
  Impulse global drift P/H:       1.277167e-8 / 6.452603e-3
  Impulse per-body max drift P/H: 3.075838e-8 / 7.546014e-4
  CPU cores:         256 available, 8 Rayon worker thread(s)
  Started:           2026-06-24 02:26:24
  Finished:          2026-06-24 02:29:34
  Output file:       /work/e643/e643/shared/multi_ellip/studies/departing_sphericity_sweep/runs/spheroid_oblate/homogeneous/spheroid_oblate_homogeneous_eps0p001_rho1_E0p5_sep8_run03_impulse_noproj/multiple_body_complete.dat
================================================
