
================ Simulation setup ================
  Run label:         /work/e643/e643/shared/multi_ellip/studies/two_body_paper_sweeps/runs/spheroid_1_0p7_0p7/spheroid_1_0p7_0p7_rho0p3_E4_sep8_run03_impulse_noproj/
  Started:           2026-06-24 01:52:40
  Input file:        /work/e643/e643/shared/multi_ellip/studies/two_body_paper_sweeps/runs/spheroid_1_0p7_0p7/spheroid_1_0p7_0p7_rho0p3_E4_sep8_run03_impulse_noproj/input.txt
  Output file:       /work/e643/e643/shared/multi_ellip/studies/two_body_paper_sweeps/runs/spheroid_1_0p7_0p7/spheroid_1_0p7_0p7_rho0p3_E4_sep8_run03_impulse_noproj/multiple_body_complete.dat
  Bodies:            2
  Fluid density:     1
  Mesh:              ndiv 2 -> 256 triangles / 516 nodes
  Simulated time:    0 -> 100  (dt = 0.05, ~2000 steps)
  Output cadence:    every 1 step(s)
  Output rows:       ~2001
  Progress cadence:  every 100 step(s)
  CPU cores:         256 available, 8 Rayon worker thread(s)
  Strong coupling:   disabled
  Impulse scheme:    enabled
  Hamiltonian step:  disabled
  Hamiltonian midpt: disabled
  Variational step:  disabled
  Energy projection: disabled
  Projection particular metric: Euclidean
  Fluid KE gradient: disabled  (eps = 0.001, scale = 1, linear = 1, angular = 1)
  Fluid KE discrete gradient: disabled
  Impulse pair metric correction: disabled  (mode = pair discrete-gradient, cutoff = all pairs, inner/outer = 0/0, eps = 0.001, linear scale = 1, angular scale = 0)
  Impulse metric correction: disabled  (internal load constraint = disabled)
  Impulse variational defect probe: disabled
  Impulse quadratic pressure: disabled  (scale = 1)
  Added-mass stab:   disabled
  Exact BEM geometry: disabled
  Exact singular BEM: disabled
  Legacy singular SLP diagnostic: disabled
  Phi-dot blend:     0 (off)

  Solver guidance:
    - Strong coupling: use for stiff close-coupled runs; slower but more implicit.
    - Impulse scheme: use when impulse/momentum conservation or KE drift is the focus. Recommended.
    - Added-mass stab: use for higher mesh counts (ndiv > 3) to preserve stability - deprecated.
================================================
Solver starting - good luck!

Initial state:
  Body  1
    density:          0.300000
    shape axes ratio: (1.000000, 0.700000, 0.700000)
    initial KE ratio: 4.000000
    position:         (-4.000000, 0.000000, 0.000000)
    velocity:         (-0.765842, 1.532134, -1.303118)
    angular velocity: (-1.561304, -4.911455, -3.594211)
    orientation:      (w=0.041572, i=0.109980, j=0.739876, k=0.662389)
  Body  2
    density:          0.300000
    shape axes ratio: (1.000000, 0.700000, 0.700000)
    initial KE ratio: 4.000000
    position:         (4.000000, 0.000000, 0.000000)
    velocity:         (-0.651281, 1.302945, -1.108187)
    angular velocity: (-5.804197, -2.394735, 0.234444)
    orientation:      (w=0.648738, i=-0.206923, j=0.446921, k=0.580158)

Preparing first step: implicit scheme, no bootstrap passes required.
First step may take longer than later steps.

First step completed in 0.246 s.

Step   100/2000    5.0% | t 5.000 | ETA 4m 40s | step 0.16s | KE 42.9649 | drift -1.73% | fluid 14.9494 | solid 28.0155
  Impulse FP iterations last/mean/max 11/11.46/12
Step   200/2000   10.0% | t 10.000 | ETA 4m 37s | step 0.16s | KE 42.9507 | drift -1.76% | fluid 14.9140 | solid 28.0367
  Impulse FP iterations last/mean/max 11/11.32/12
Step   300/2000   15.0% | t 15.000 | ETA 4m 26s | step 0.15s | KE 43.0446 | drift -1.54% | fluid 14.9186 | solid 28.1259
  Impulse FP iterations last/mean/max 11/11.31/12
Step   400/2000   20.0% | t 20.000 | ETA 4m 11s | step 0.17s | KE 43.1701 | drift -1.26% | fluid 14.9961 | solid 28.1740
  Impulse FP iterations last/mean/max 11/11.24/12
Step   500/2000   25.0% | t 25.000 | ETA 3m 56s | step 0.16s | KE 43.0490 | drift -1.53% | fluid 14.9112 | solid 28.1378
  Impulse FP iterations last/mean/max 11/11.23/13
Step   600/2000   30.0% | t 30.000 | ETA 3m 40s | step 0.16s | KE 43.0789 | drift -1.47% | fluid 14.9405 | solid 28.1384
  Impulse FP iterations last/mean/max 12/11.19/13
Step   700/2000   35.0% | t 35.000 | ETA 3m 25s | step 0.16s | KE 43.0888 | drift -1.44% | fluid 14.9553 | solid 28.1335
  Impulse FP iterations last/mean/max 11/11.18/13
Step   800/2000   40.0% | t 40.000 | ETA 3m 9s | step 0.16s | KE 42.9691 | drift -1.72% | fluid 14.8704 | solid 28.0987
  Impulse FP iterations last/mean/max 11/11.17/13
Step   900/2000   45.0% | t 45.000 | ETA 2m 53s | step 0.16s | KE 43.0665 | drift -1.49% | fluid 14.9426 | solid 28.1240
  Impulse FP iterations last/mean/max 11/11.15/13
Step  1000/2000   50.0% | t 50.000 | ETA 2m 38s | step 0.17s | KE 43.0263 | drift -1.59% | fluid 14.9135 | solid 28.1128
  Impulse FP iterations last/mean/max 12/11.15/13
Step  1100/2000   55.0% | t 55.000 | ETA 2m 22s | step 0.14s | KE 42.9789 | drift -1.69% | fluid 14.8804 | solid 28.0985
  Impulse FP iterations last/mean/max 10/11.14/13
Step  1200/2000   60.0% | t 60.000 | ETA 2m 6s | step 0.16s | KE 43.0865 | drift -1.45% | fluid 14.9616 | solid 28.1250
  Impulse FP iterations last/mean/max 11/11.13/13
Step  1300/2000   65.0% | t 65.000 | ETA 1m 50s | step 0.18s | KE 43.0012 | drift -1.64% | fluid 14.8989 | solid 28.1023
  Impulse FP iterations last/mean/max 12/11.13/13
Step  1400/2000   70.0% | t 70.000 | ETA 1m 34s | step 0.15s | KE 43.0507 | drift -1.53% | fluid 14.9356 | solid 28.1151
  Impulse FP iterations last/mean/max 11/11.13/13
Step  1500/2000   75.0% | t 75.000 | ETA 1m 19s | step 0.15s | KE 43.1057 | drift -1.40% | fluid 14.9773 | solid 28.1284
  Impulse FP iterations last/mean/max 11/11.12/13
Step  1600/2000   80.0% | t 80.000 | ETA 1m 3s | step 0.15s | KE 43.0015 | drift -1.64% | fluid 14.9015 | solid 28.1001
  Impulse FP iterations last/mean/max 11/11.12/13
Step  1700/2000   85.0% | t 85.000 | ETA 47s | step 0.17s | KE 43.1030 | drift -1.41% | fluid 14.9754 | solid 28.1276
  Impulse FP iterations last/mean/max 11/11.12/13
Step  1800/2000   90.0% | t 90.000 | ETA 31s | step 0.16s | KE 43.0731 | drift -1.48% | fluid 14.9513 | solid 28.1218
  Impulse FP iterations last/mean/max 11/11.12/13
Step  1900/2000   95.0% | t 95.000 | ETA 15s | step 0.13s | KE 43.0005 | drift -1.65% | fluid 14.8988 | solid 28.1018
  Impulse FP iterations last/mean/max 10/11.12/13
Solver finished successfully - good job!
Results saved successfully.

================== Run summary ==================
  Bodies:            2
  Triangles / nodes: 256 / 516
  Timesteps:         2000  (dt = 0.05)
  Simulated time:    0 -> 100
  First-step setup:  0.246 s
  Mean time/step:    0.1582 s  (excl. first step)
  Total wall time:   5m 16s
  Impulse FP iters last/mean/max: 11 / 11.111 / 13
  Approx impulse solves/step:     11.111
  Impulse start cache hits/direct: 1999 / 1
  Impulse global drift P/H:       3.514141e-8 / 6.604153e-3
  Impulse per-body max drift P/H: 4.059183e-8 / 4.662584e-3
  CPU cores:         256 available, 8 Rayon worker thread(s)
  Started:           2026-06-24 01:52:40
  Finished:          2026-06-24 01:57:56
  Output file:       /work/e643/e643/shared/multi_ellip/studies/two_body_paper_sweeps/runs/spheroid_1_0p7_0p7/spheroid_1_0p7_0p7_rho0p3_E4_sep8_run03_impulse_noproj/multiple_body_complete.dat
================================================
