
================ Simulation setup ================
  Run label:         /work/e643/e643/shared/multi_ellip/studies/departing_sphericity_sweep/runs/triaxial/heterogeneous_sphere/triaxial_heterogeneous_sphere_eps0p03_rho1_E0p5_sep8_run01_impulse_noproj/
  Started:           2026-06-24 02:46:57
  Input file:        /work/e643/e643/shared/multi_ellip/studies/departing_sphericity_sweep/runs/triaxial/heterogeneous_sphere/triaxial_heterogeneous_sphere_eps0p03_rho1_E0p5_sep8_run01_impulse_noproj/input.txt
  Output file:       /work/e643/e643/shared/multi_ellip/studies/departing_sphericity_sweep/runs/triaxial/heterogeneous_sphere/triaxial_heterogeneous_sphere_eps0p03_rho1_E0p5_sep8_run01_impulse_noproj/multiple_body_complete.dat
  Bodies:            2
  Fluid density:     1
  Mesh:              ndiv 2 -> 256 triangles / 516 nodes
  Simulated time:    0 -> 100  (dt = 0.05, ~2000 steps)
  Output cadence:    every 1 step(s)
  Output rows:       ~2001
  Progress cadence:  every 100 step(s)
  CPU cores:         256 available, 8 Rayon worker thread(s)
  Strong coupling:   disabled
  Impulse scheme:    enabled
  Hamiltonian step:  disabled
  Hamiltonian midpt: disabled
  Variational step:  disabled
  Energy projection: disabled
  Projection particular metric: Euclidean
  Fluid KE gradient: disabled  (eps = 0.001, scale = 1, linear = 1, angular = 1)
  Fluid KE discrete gradient: disabled
  Impulse pair metric correction: disabled  (mode = pair discrete-gradient, cutoff = all pairs, inner/outer = 0/0, eps = 0.001, linear scale = 1, angular scale = 0)
  Impulse metric correction: disabled  (internal load constraint = disabled)
  Impulse variational defect probe: disabled
  Impulse quadratic pressure: disabled  (scale = 1)
  Added-mass stab:   disabled
  Exact BEM geometry: disabled
  Exact singular BEM: disabled
  Legacy singular SLP diagnostic: disabled
  Phi-dot blend:     0 (off)

  Solver guidance:
    - Strong coupling: use for stiff close-coupled runs; slower but more implicit.
    - Impulse scheme: use when impulse/momentum conservation or KE drift is the focus. Recommended.
    - Added-mass stab: use for higher mesh counts (ndiv > 3) to preserve stability - deprecated.
================================================
Solver starting - good luck!

Initial state:
  Body  1
    density:          1.000000
    shape axes ratio: (1.000000, 0.970874, 0.942596)
    initial KE ratio: 0.500000
    position:         (-4.000000, 0.000000, 0.000000)
    velocity:         (0.209489, -5.295441, 1.886604)
    angular velocity: (-0.589770, -6.201653, -0.818593)
    orientation:      (w=-0.160816, i=0.587716, j=0.785737, k=-0.106514)
  Body  2
    density:          1.000000
    shape axes ratio: (1.000000, 1.000000, 1.000000)
    initial KE ratio: 0.500000
    position:         (4.000000, 0.000000, 0.000000)
    velocity:         (0.209284, -5.290241, 1.884751)
    angular velocity: (-3.287428, -5.350128, 0.217647)
    orientation:      (w=-0.177465, i=0.488301, j=-0.457938, k=-0.721360)

Preparing first step: implicit scheme, no bootstrap passes required.
First step may take longer than later steps.

First step completed in 0.211 s.

Step   100/2000    5.0% | t 5.000 | ETA 3m 23s | step 0.11s | KE 268.7777 | drift -0.19% | fluid 71.3944 | solid 197.3833
  Impulse FP iterations last/mean/max 8/7.94/8
Step   200/2000   10.0% | t 10.000 | ETA 3m 18s | step 0.11s | KE 268.8036 | drift -0.18% | fluid 71.9278 | solid 196.8758
  Impulse FP iterations last/mean/max 8/7.95/8
Step   300/2000   15.0% | t 15.000 | ETA 3m 9s | step 0.12s | KE 268.5238 | drift -0.28% | fluid 71.4259 | solid 197.0979
  Impulse FP iterations last/mean/max 8/7.95/8
Step   400/2000   20.0% | t 20.000 | ETA 2m 58s | step 0.11s | KE 267.8364 | drift -0.54% | fluid 71.4585 | solid 196.3779
  Impulse FP iterations last/mean/max 8/7.95/8
Step   500/2000   25.0% | t 25.000 | ETA 2m 47s | step 0.12s | KE 267.8700 | drift -0.52% | fluid 71.7120 | solid 196.1581
  Impulse FP iterations last/mean/max 8/7.95/8
Step   600/2000   30.0% | t 30.000 | ETA 2m 36s | step 0.12s | KE 267.5761 | drift -0.63% | fluid 71.5369 | solid 196.0392
  Impulse FP iterations last/mean/max 8/7.95/8
Step   700/2000   35.0% | t 35.000 | ETA 2m 25s | step 0.11s | KE 266.8220 | drift -0.91% | fluid 71.4578 | solid 195.3641
  Impulse FP iterations last/mean/max 8/7.96/8
Step   800/2000   40.0% | t 40.000 | ETA 2m 14s | step 0.10s | KE 266.7924 | drift -0.92% | fluid 71.8342 | solid 194.9583
  Impulse FP iterations last/mean/max 8/7.96/8
Step   900/2000   45.0% | t 45.000 | ETA 2m 3s | step 0.12s | KE 266.5980 | drift -1.00% | fluid 71.4253 | solid 195.1727
  Impulse FP iterations last/mean/max 8/7.96/8
Step  1000/2000   50.0% | t 50.000 | ETA 1m 52s | step 0.12s | KE 265.8405 | drift -1.28% | fluid 71.4089 | solid 194.4316
  Impulse FP iterations last/mean/max 8/7.96/8
Step  1100/2000   55.0% | t 55.000 | ETA 1m 41s | step 0.11s | KE 265.7448 | drift -1.31% | fluid 71.8567 | solid 193.8881
  Impulse FP iterations last/mean/max 8/7.96/8
Step  1200/2000   60.0% | t 60.000 | ETA 1m 30s | step 0.12s | KE 265.6630 | drift -1.34% | fluid 71.3836 | solid 194.2794
  Impulse FP iterations last/mean/max 8/7.96/8
Step  1300/2000   65.0% | t 65.000 | ETA 1m 18s | step 0.12s | KE 264.9451 | drift -1.61% | fluid 71.5754 | solid 193.3698
  Impulse FP iterations last/mean/max 8/7.96/8
Step  1400/2000   70.0% | t 70.000 | ETA 1m 7s | step 0.11s | KE 264.8250 | drift -1.65% | fluid 71.6731 | solid 193.1520
  Impulse FP iterations last/mean/max 8/7.96/8
Step  1500/2000   75.0% | t 75.000 | ETA 56s | step 0.10s | KE 264.8090 | drift -1.66% | fluid 71.4042 | solid 193.4048
  Impulse FP iterations last/mean/max 8/7.96/8
Step  1600/2000   80.0% | t 80.000 | ETA 45s | step 0.11s | KE 264.2103 | drift -1.88% | fluid 71.5765 | solid 192.6339
  Impulse FP iterations last/mean/max 8/7.96/8
Step  1700/2000   85.0% | t 85.000 | ETA 33s | step 0.11s | KE 264.0124 | drift -1.96% | fluid 71.8068 | solid 192.2055
  Impulse FP iterations last/mean/max 8/7.96/8
Step  1800/2000   90.0% | t 90.000 | ETA 22s | step 0.09s | KE 264.0861 | drift -1.93% | fluid 71.3097 | solid 192.7765
  Impulse FP iterations last/mean/max 8/7.96/8
Step  1900/2000   95.0% | t 95.000 | ETA 11s | step 0.09s | KE 263.6040 | drift -2.11% | fluid 71.5587 | solid 192.0453
  Impulse FP iterations last/mean/max 8/7.96/8
Solver finished successfully - good job!
Results saved successfully.

================== Run summary ==================
  Bodies:            2
  Triangles / nodes: 256 / 516
  Timesteps:         2000  (dt = 0.05)
  Simulated time:    0 -> 100
  First-step setup:  0.211 s
  Mean time/step:    0.1107 s  (excl. first step)
  Total wall time:   3m 41s
  Impulse FP iters last/mean/max: 8 / 7.966 / 8
  Approx impulse solves/step:     7.966
  Impulse start cache hits/direct: 1999 / 1
  Impulse global drift P/H:       3.229937e-9 / 7.723556e-3
  Impulse per-body max drift P/H: 8.153354e-9 / 9.539273e-4
  CPU cores:         256 available, 8 Rayon worker thread(s)
  Started:           2026-06-24 02:46:57
  Finished:          2026-06-24 02:50:39
  Output file:       /work/e643/e643/shared/multi_ellip/studies/departing_sphericity_sweep/runs/triaxial/heterogeneous_sphere/triaxial_heterogeneous_sphere_eps0p03_rho1_E0p5_sep8_run01_impulse_noproj/multiple_body_complete.dat
================================================
