
================ Simulation setup ================
  Run label:         /work/e643/e643/shared/multi_ellip/studies/departing_sphericity_sweep/runs/spheroid_prolate/homogeneous/spheroid_prolate_homogeneous_eps0p0003_rho1_E0p5_sep8_run09_impulse_noproj/
  Started:           2026-06-24 02:23:12
  Input file:        /work/e643/e643/shared/multi_ellip/studies/departing_sphericity_sweep/runs/spheroid_prolate/homogeneous/spheroid_prolate_homogeneous_eps0p0003_rho1_E0p5_sep8_run09_impulse_noproj/input.txt
  Output file:       /work/e643/e643/shared/multi_ellip/studies/departing_sphericity_sweep/runs/spheroid_prolate/homogeneous/spheroid_prolate_homogeneous_eps0p0003_rho1_E0p5_sep8_run09_impulse_noproj/multiple_body_complete.dat
  Bodies:            2
  Fluid density:     1
  Mesh:              ndiv 2 -> 256 triangles / 516 nodes
  Simulated time:    0 -> 100  (dt = 0.05, ~2000 steps)
  Output cadence:    every 1 step(s)
  Output rows:       ~2001
  Progress cadence:  every 100 step(s)
  CPU cores:         256 available, 8 Rayon worker thread(s)
  Strong coupling:   disabled
  Impulse scheme:    enabled
  Hamiltonian step:  disabled
  Hamiltonian midpt: disabled
  Variational step:  disabled
  Energy projection: disabled
  Projection particular metric: Euclidean
  Fluid KE gradient: disabled  (eps = 0.001, scale = 1, linear = 1, angular = 1)
  Fluid KE discrete gradient: disabled
  Impulse pair metric correction: disabled  (mode = pair discrete-gradient, cutoff = all pairs, inner/outer = 0/0, eps = 0.001, linear scale = 1, angular scale = 0)
  Impulse metric correction: disabled  (internal load constraint = disabled)
  Impulse variational defect probe: disabled
  Impulse quadratic pressure: disabled  (scale = 1)
  Added-mass stab:   disabled
  Exact BEM geometry: disabled
  Exact singular BEM: disabled
  Legacy singular SLP diagnostic: disabled
  Phi-dot blend:     0 (off)

  Solver guidance:
    - Strong coupling: use for stiff close-coupled runs; slower but more implicit.
    - Impulse scheme: use when impulse/momentum conservation or KE drift is the focus. Recommended.
    - Added-mass stab: use for higher mesh counts (ndiv > 3) to preserve stability - deprecated.
================================================
Solver starting - good luck!

Initial state:
  Body  1
    density:          1.000000
    shape axes ratio: (1.000000, 0.999101, 0.999101)
    initial KE ratio: 0.500000
    position:         (-4.000000, 0.000000, 0.000000)
    velocity:         (3.735343, -3.002417, -2.935148)
    angular velocity: (-3.695828, -0.768744, -5.022778)
    orientation:      (w=-0.121197, i=-0.067521, j=0.497299, k=-0.856414)
  Body  2
    density:          1.000000
    shape axes ratio: (1.000000, 0.999101, 0.999101)
    initial KE ratio: 0.500000
    position:         (4.000000, 0.000000, 0.000000)
    velocity:         (3.735005, -3.002145, -2.934883)
    angular velocity: (-4.646074, 0.205098, -4.224967)
    orientation:      (w=-0.256735, i=0.861894, j=-0.359839, k=-0.248479)

Preparing first step: implicit scheme, no bootstrap passes required.
First step may take longer than later steps.

First step completed in 7.337 s.

Step   100/2000    5.0% | t 5.000 | ETA 3m 5s | step 0.10s | KE 262.0814 | drift -3.18% | fluid 72.2808 | solid 189.8006
  Impulse FP iterations last/mean/max 7/6.98/7
Step   200/2000   10.0% | t 10.000 | ETA 2m 54s | step 0.10s | KE 256.6170 | drift -5.20% | fluid 72.2754 | solid 184.3416
  Impulse FP iterations last/mean/max 7/6.93/7
Step   300/2000   15.0% | t 15.000 | ETA 2m 44s | step 0.10s | KE 254.2918 | drift -6.06% | fluid 72.2807 | solid 182.0112
  Impulse FP iterations last/mean/max 7/6.93/7
Step   400/2000   20.0% | t 20.000 | ETA 2m 34s | step 0.10s | KE 255.1041 | drift -5.76% | fluid 72.2614 | solid 182.8427
  Impulse FP iterations last/mean/max 7/6.95/7
Step   500/2000   25.0% | t 25.000 | ETA 2m 24s | step 0.09s | KE 259.0455 | drift -4.30% | fluid 72.2712 | solid 186.7743
  Impulse FP iterations last/mean/max 7/6.95/7
Step   600/2000   30.0% | t 30.000 | ETA 2m 15s | step 0.10s | KE 266.1175 | drift -1.69% | fluid 72.2596 | solid 193.8579
  Impulse FP iterations last/mean/max 7/6.96/7
Step   700/2000   35.0% | t 35.000 | ETA 2m 6s | step 0.10s | KE 276.3138 | drift +2.07% | fluid 72.2619 | solid 204.0518
  Impulse FP iterations last/mean/max 7/6.96/7
Step   800/2000   40.0% | t 40.000 | ETA 1m 56s | step 0.10s | KE 289.6314 | drift +6.99% | fluid 72.2691 | solid 217.3623
  Impulse FP iterations last/mean/max 7/6.97/8
Step   900/2000   45.0% | t 45.000 | ETA 1m 47s | step 0.10s | KE 306.0692 | drift +13.07% | fluid 72.2582 | solid 233.8110
  Impulse FP iterations last/mean/max 7/6.99/8
Step  1000/2000   50.0% | t 50.000 | ETA 1m 38s | step 0.10s | KE 325.6126 | drift +20.29% | fluid 72.2789 | solid 253.3337
  Impulse FP iterations last/mean/max 7/7.03/8
Step  1100/2000   55.0% | t 55.000 | ETA 1m 28s | step 0.10s | KE 348.2648 | drift +28.65% | fluid 72.2769 | solid 275.9879
  Impulse FP iterations last/mean/max 7/7.06/8
Step  1200/2000   60.0% | t 60.000 | ETA 1m 19s | step 0.11s | KE 374.0105 | drift +38.17% | fluid 72.2838 | solid 301.7268
  Impulse FP iterations last/mean/max 8/7.11/8
Step  1300/2000   65.0% | t 65.000 | ETA 1m 9s | step 0.09s | KE 402.8509 | drift +48.82% | fluid 72.2685 | solid 330.5824
  Impulse FP iterations last/mean/max 7/7.14/8
Step  1400/2000   70.0% | t 70.000 | ETA 59s | step 0.10s | KE 434.7612 | drift +60.61% | fluid 72.2789 | solid 362.4823
  Impulse FP iterations last/mean/max 8/7.17/8
Step  1500/2000   75.0% | t 75.000 | ETA 50s | step 0.10s | KE 469.7423 | drift +73.53% | fluid 72.2816 | solid 397.4608
  Impulse FP iterations last/mean/max 7/7.21/8
Step  1600/2000   80.0% | t 80.000 | ETA 39s | step 0.10s | KE 507.7887 | drift +87.59% | fluid 72.2688 | solid 435.5199
  Impulse FP iterations last/mean/max 8/7.23/8
Step  1700/2000   85.0% | t 85.000 | ETA 29s | step 0.09s | KE 548.8791 | drift +102.77% | fluid 72.2663 | solid 476.6128
  Impulse FP iterations last/mean/max 8/7.26/8
Step  1800/2000   90.0% | t 90.000 | ETA 19s | step 0.09s | KE 593.0037 | drift +119.07% | fluid 72.2658 | solid 520.7379
  Impulse FP iterations last/mean/max 8/7.28/8
Step  1900/2000   95.0% | t 95.000 | ETA 9s | step 0.07s | KE 640.1490 | drift +136.48% | fluid 72.2723 | solid 567.8767
  Impulse FP iterations last/mean/max 8/7.30/8
Solver finished successfully - good job!
Results saved successfully.

================== Run summary ==================
  Bodies:            2
  Triangles / nodes: 256 / 516
  Timesteps:         2000  (dt = 0.05)
  Simulated time:    0 -> 100
  First-step setup:  7.337 s
  Mean time/step:    0.0962 s  (excl. first step)
  Total wall time:   3m 19s
  Impulse FP iters last/mean/max: 8 / 7.323 / 8
  Approx impulse solves/step:     7.324
  Impulse start cache hits/direct: 1999 / 1
  Impulse global drift P/H:       1.129797e-8 / 4.498743e-2
  Impulse per-body max drift P/H: 1.215579e-8 / 4.687740e-3
  CPU cores:         256 available, 8 Rayon worker thread(s)
  Started:           2026-06-24 02:23:12
  Finished:          2026-06-24 02:26:32
  Output file:       /work/e643/e643/shared/multi_ellip/studies/departing_sphericity_sweep/runs/spheroid_prolate/homogeneous/spheroid_prolate_homogeneous_eps0p0003_rho1_E0p5_sep8_run09_impulse_noproj/multiple_body_complete.dat
================================================
