
================ Simulation setup ================
  Run label:         /work/e643/e643/shared/multi_ellip/studies/two_body_paper_sweeps/runs/spheroid_1_0p7_0p7/spheroid_1_0p7_0p7_rho4_E0p55_sep3_run03_impulse_noproj/
  Started:           2026-06-24 01:21:57
  Input file:        /work/e643/e643/shared/multi_ellip/studies/two_body_paper_sweeps/runs/spheroid_1_0p7_0p7/spheroid_1_0p7_0p7_rho4_E0p55_sep3_run03_impulse_noproj/input.txt
  Output file:       /work/e643/e643/shared/multi_ellip/studies/two_body_paper_sweeps/runs/spheroid_1_0p7_0p7/spheroid_1_0p7_0p7_rho4_E0p55_sep3_run03_impulse_noproj/multiple_body_complete.dat
  Bodies:            2
  Fluid density:     1
  Mesh:              ndiv 2 -> 256 triangles / 516 nodes
  Simulated time:    0 -> 100  (dt = 0.05, ~2000 steps)
  Output cadence:    every 1 step(s)
  Output rows:       ~2001
  Progress cadence:  every 100 step(s)
  CPU cores:         256 available, 8 Rayon worker thread(s)
  Strong coupling:   disabled
  Impulse scheme:    enabled
  Hamiltonian step:  disabled
  Hamiltonian midpt: disabled
  Variational step:  disabled
  Energy projection: disabled
  Projection particular metric: Euclidean
  Fluid KE gradient: disabled  (eps = 0.001, scale = 1, linear = 1, angular = 1)
  Fluid KE discrete gradient: disabled
  Impulse pair metric correction: disabled  (mode = pair discrete-gradient, cutoff = all pairs, inner/outer = 0/0, eps = 0.001, linear scale = 1, angular scale = 0)
  Impulse metric correction: disabled  (internal load constraint = disabled)
  Impulse variational defect probe: disabled
  Impulse quadratic pressure: disabled  (scale = 1)
  Added-mass stab:   disabled
  Exact BEM geometry: disabled
  Exact singular BEM: disabled
  Legacy singular SLP diagnostic: disabled
  Phi-dot blend:     0 (off)

  Solver guidance:
    - Strong coupling: use for stiff close-coupled runs; slower but more implicit.
    - Impulse scheme: use when impulse/momentum conservation or KE drift is the focus. Recommended.
    - Added-mass stab: use for higher mesh counts (ndiv > 3) to preserve stability - deprecated.
================================================
Solver starting - good luck!

Initial state:
  Body  1
    density:          4.000000
    shape axes ratio: (1.000000, 0.700000, 0.700000)
    initial KE ratio: 0.550000
    position:         (-1.500000, 0.000000, 0.000000)
    velocity:         (-1.221047, 4.688920, 1.058996)
    angular velocity: (-5.735832, 0.003445, 2.564886)
    orientation:      (w=-0.179969, i=0.592520, j=0.346199, k=0.704754)
  Body  2
    density:          4.000000
    shape axes ratio: (1.000000, 0.700000, 0.700000)
    initial KE ratio: 0.550000
    position:         (1.500000, 0.000000, 0.000000)
    velocity:         (-1.213481, 4.659868, 1.052435)
    angular velocity: (5.823931, 0.155850, -2.352860)
    orientation:      (w=0.554133, i=-0.269061, j=-0.438111, k=0.654677)

Preparing first step: implicit scheme, no bootstrap passes required.
First step may take longer than later steps.

First step completed in 0.299 s.

Step   100/2000    5.0% | t 5.000 | ETA 3m 47s | step 0.12s | KE 761.1408 | drift +0.09% | fluid 61.6197 | solid 699.5211
  Impulse FP iterations last/mean/max 8/8.31/9
Step   200/2000   10.0% | t 10.000 | ETA 3m 32s | step 0.12s | KE 767.3236 | drift +0.91% | fluid 55.0128 | solid 712.3108
  Impulse FP iterations last/mean/max 8/8.21/9
Step   300/2000   15.0% | t 15.000 | ETA 3m 19s | step 0.12s | KE 771.5085 | drift +1.46% | fluid 65.6749 | solid 705.8337
  Impulse FP iterations last/mean/max 8/8.14/9
Step   400/2000   20.0% | t 20.000 | ETA 3m 5s | step 0.11s | KE 776.3705 | drift +2.10% | fluid 52.2816 | solid 724.0889
  Impulse FP iterations last/mean/max 8/8.07/9
Step   500/2000   25.0% | t 25.000 | ETA 2m 52s | step 0.11s | KE 780.8967 | drift +2.69% | fluid 53.9547 | solid 726.9420
  Impulse FP iterations last/mean/max 7/7.98/9
Step   600/2000   30.0% | t 30.000 | ETA 2m 38s | step 0.10s | KE 785.0957 | drift +3.24% | fluid 53.8184 | solid 731.2773
  Impulse FP iterations last/mean/max 7/7.89/9
Step   700/2000   35.0% | t 35.000 | ETA 2m 26s | step 0.11s | KE 788.5197 | drift +3.69% | fluid 59.5873 | solid 728.9324
  Impulse FP iterations last/mean/max 7/7.81/9
Step   800/2000   40.0% | t 40.000 | ETA 2m 13s | step 0.10s | KE 790.9196 | drift +4.01% | fluid 59.6683 | solid 731.2512
  Impulse FP iterations last/mean/max 7/7.75/9
Step   900/2000   45.0% | t 45.000 | ETA 2m 1s | step 0.11s | KE 792.4048 | drift +4.20% | fluid 62.7640 | solid 729.6409
  Impulse FP iterations last/mean/max 7/7.70/9
Step  1000/2000   50.0% | t 50.000 | ETA 1m 50s | step 0.09s | KE 793.2769 | drift +4.32% | fluid 60.7375 | solid 732.5394
  Impulse FP iterations last/mean/max 7/7.67/9
Step  1100/2000   55.0% | t 55.000 | ETA 1m 38s | step 0.10s | KE 793.7457 | drift +4.38% | fluid 61.5897 | solid 732.1560
  Impulse FP iterations last/mean/max 7/7.63/9
Step  1200/2000   60.0% | t 60.000 | ETA 1m 27s | step 0.12s | KE 794.0384 | drift +4.42% | fluid 58.9889 | solid 735.0495
  Impulse FP iterations last/mean/max 8/7.61/9
Step  1300/2000   65.0% | t 65.000 | ETA 1m 16s | step 0.12s | KE 794.2261 | drift +4.44% | fluid 58.4105 | solid 735.8156
  Impulse FP iterations last/mean/max 8/7.59/9
Step  1400/2000   70.0% | t 70.000 | ETA 1m 5s | step 0.10s | KE 794.3769 | drift +4.46% | fluid 56.9168 | solid 737.4601
  Impulse FP iterations last/mean/max 7/7.58/9
Step  1500/2000   75.0% | t 75.000 | ETA 54s | step 0.12s | KE 794.4917 | drift +4.48% | fluid 55.3664 | solid 739.1253
  Impulse FP iterations last/mean/max 8/7.56/9
Step  1600/2000   80.0% | t 80.000 | ETA 43s | step 0.12s | KE 794.5430 | drift +4.49% | fluid 56.3831 | solid 738.1599
  Impulse FP iterations last/mean/max 8/7.55/9
Step  1700/2000   85.0% | t 85.000 | ETA 32s | step 0.10s | KE 794.5505 | drift +4.49% | fluid 55.2083 | solid 739.3422
  Impulse FP iterations last/mean/max 8/7.53/9
Step  1800/2000   90.0% | t 90.000 | ETA 21s | step 0.09s | KE 794.4980 | drift +4.48% | fluid 58.6096 | solid 735.8884
  Impulse FP iterations last/mean/max 7/7.52/9
Step  1900/2000   95.0% | t 95.000 | ETA 10s | step 0.09s | KE 794.4538 | drift +4.47% | fluid 57.4853 | solid 736.9684
  Impulse FP iterations last/mean/max 8/7.52/9
Solver finished successfully - good job!
Results saved successfully.

================== Run summary ==================
  Bodies:            2
  Triangles / nodes: 256 / 516
  Timesteps:         2000  (dt = 0.05)
  Simulated time:    0 -> 100
  First-step setup:  0.299 s
  Mean time/step:    0.1054 s  (excl. first step)
  Total wall time:   3m 31s
  Impulse FP iters last/mean/max: 7 / 7.504 / 9
  Approx impulse solves/step:     7.504
  Impulse start cache hits/direct: 1999 / 1
  Impulse global drift P/H:       8.659652e-9 / 7.850922e-2
  Impulse per-body max drift P/H: 1.746398e-8 / 1.151559e-2
  CPU cores:         256 available, 8 Rayon worker thread(s)
  Started:           2026-06-24 01:21:57
  Finished:          2026-06-24 01:25:28
  Output file:       /work/e643/e643/shared/multi_ellip/studies/two_body_paper_sweeps/runs/spheroid_1_0p7_0p7/spheroid_1_0p7_0p7_rho4_E0p55_sep3_run03_impulse_noproj/multiple_body_complete.dat
================================================
