
================ Simulation setup ================
  Run label:         /work/e643/e643/shared/multi_ellip/studies/departing_sphericity_sweep/runs/triaxial/homogeneous/triaxial_homogeneous_eps1_rho1_E0p5_sep8_run07_impulse_noproj/
  Started:           2026-06-24 02:37:12
  Input file:        /work/e643/e643/shared/multi_ellip/studies/departing_sphericity_sweep/runs/triaxial/homogeneous/triaxial_homogeneous_eps1_rho1_E0p5_sep8_run07_impulse_noproj/input.txt
  Output file:       /work/e643/e643/shared/multi_ellip/studies/departing_sphericity_sweep/runs/triaxial/homogeneous/triaxial_homogeneous_eps1_rho1_E0p5_sep8_run07_impulse_noproj/multiple_body_complete.dat
  Bodies:            2
  Fluid density:     1
  Mesh:              ndiv 2 -> 256 triangles / 516 nodes
  Simulated time:    0 -> 100  (dt = 0.05, ~2000 steps)
  Output cadence:    every 1 step(s)
  Output rows:       ~2001
  Progress cadence:  every 100 step(s)
  CPU cores:         256 available, 8 Rayon worker thread(s)
  Strong coupling:   disabled
  Impulse scheme:    enabled
  Hamiltonian step:  disabled
  Hamiltonian midpt: disabled
  Variational step:  disabled
  Energy projection: disabled
  Projection particular metric: Euclidean
  Fluid KE gradient: disabled  (eps = 0.001, scale = 1, linear = 1, angular = 1)
  Fluid KE discrete gradient: disabled
  Impulse pair metric correction: disabled  (mode = pair discrete-gradient, cutoff = all pairs, inner/outer = 0/0, eps = 0.001, linear scale = 1, angular scale = 0)
  Impulse metric correction: disabled  (internal load constraint = disabled)
  Impulse variational defect probe: disabled
  Impulse quadratic pressure: disabled  (scale = 1)
  Added-mass stab:   disabled
  Exact BEM geometry: disabled
  Exact singular BEM: disabled
  Legacy singular SLP diagnostic: disabled
  Phi-dot blend:     0 (off)

  Solver guidance:
    - Strong coupling: use for stiff close-coupled runs; slower but more implicit.
    - Impulse scheme: use when impulse/momentum conservation or KE drift is the focus. Recommended.
    - Added-mass stab: use for higher mesh counts (ndiv > 3) to preserve stability - deprecated.
================================================
Solver starting - good luck!

Initial state:
  Body  1
    density:          1.000000
    shape axes ratio: (1.000000, 0.500000, 0.250000)
    initial KE ratio: 0.500000
    position:         (-4.000000, 0.000000, 0.000000)
    velocity:         (-4.952167, -3.698636, -5.326709)
    angular velocity: (1.221317, 5.814271, -2.044763)
    orientation:      (w=0.144149, i=0.232474, j=0.114874, k=-0.954977)
  Body  2
    density:          1.000000
    shape axes ratio: (1.000000, 0.500000, 0.250000)
    initial KE ratio: 0.500000
    position:         (4.000000, 0.000000, 0.000000)
    velocity:         (-4.906279, -3.664364, -5.277351)
    angular velocity: (-1.256493, -6.120758, 0.660274)
    orientation:      (w=0.002924, i=0.525925, j=-0.706338, k=0.473794)

Preparing first step: implicit scheme, no bootstrap passes required.
First step may take longer than later steps.

First step completed in 0.293 s.

Step   100/2000    5.0% | t 5.000 | ETA 7m 33s | step 0.26s | KE 558.7094 | drift +0.89% | fluid 177.6997 | solid 381.0097
  Impulse FP iterations last/mean/max 17/16.45/19
Step   200/2000   10.0% | t 10.000 | ETA 7m 15s | step 0.24s | KE 562.6989 | drift +1.61% | fluid 160.7388 | solid 401.9601
  Impulse FP iterations last/mean/max 16/16.48/19
Step   300/2000   15.0% | t 15.000 | ETA 6m 53s | step 0.24s | KE 556.8291 | drift +0.55% | fluid 177.1485 | solid 379.6807
  Impulse FP iterations last/mean/max 16/16.52/19
Step   400/2000   20.0% | t 20.000 | ETA 6m 29s | step 0.25s | KE 561.2377 | drift +1.35% | fluid 165.8344 | solid 395.4032
  Impulse FP iterations last/mean/max 17/16.54/19
Step   500/2000   25.0% | t 25.000 | ETA 6m 4s | step 0.27s | KE 555.9324 | drift +0.39% | fluid 179.6425 | solid 376.2899
  Impulse FP iterations last/mean/max 17/16.47/19
Step   600/2000   30.0% | t 30.000 | ETA 5m 38s | step 0.24s | KE 557.9131 | drift +0.75% | fluid 189.9063 | solid 368.0068
  Impulse FP iterations last/mean/max 17/16.46/19
Step   700/2000   35.0% | t 35.000 | ETA 5m 10s | step 0.22s | KE 559.1304 | drift +0.97% | fluid 211.3446 | solid 347.7858
  Impulse FP iterations last/mean/max 18/16.48/20
Step   800/2000   40.0% | t 40.000 | ETA 4m 36s | step 0.15s | KE 561.1022 | drift +1.33% | fluid 167.2291 | solid 393.8731
  Impulse FP iterations last/mean/max 16/16.50/20
Step   900/2000   45.0% | t 45.000 | ETA 4m 4s | step 0.15s | KE 557.9752 | drift +0.76% | fluid 171.4714 | solid 386.5038
  Impulse FP iterations last/mean/max 16/16.51/20
Step  1000/2000   50.0% | t 50.000 | ETA 3m 35s | step 0.15s | KE 561.9725 | drift +1.48% | fluid 191.3749 | solid 370.5976
  Impulse FP iterations last/mean/max 16/16.51/20
Step  1100/2000   55.0% | t 55.000 | ETA 3m 8s | step 0.15s | KE 561.5019 | drift +1.40% | fluid 209.0344 | solid 352.4675
  Impulse FP iterations last/mean/max 17/16.51/20
Step  1200/2000   60.0% | t 60.000 | ETA 2m 43s | step 0.13s | KE 564.8409 | drift +2.00% | fluid 153.9892 | solid 410.8517
  Impulse FP iterations last/mean/max 15/16.50/20
Step  1300/2000   65.0% | t 65.000 | ETA 2m 19s | step 0.15s | KE 558.7538 | drift +0.90% | fluid 226.1205 | solid 332.6333
  Impulse FP iterations last/mean/max 18/16.47/20
Step  1400/2000   70.0% | t 70.000 | ETA 1m 57s | step 0.14s | KE 566.4526 | drift +2.29% | fluid 139.1208 | solid 427.3318
  Impulse FP iterations last/mean/max 16/16.47/20
Step  1500/2000   75.0% | t 75.000 | ETA 1m 35s | step 0.14s | KE 565.4168 | drift +2.10% | fluid 152.5513 | solid 412.8656
  Impulse FP iterations last/mean/max 16/16.47/20
Step  1600/2000   80.0% | t 80.000 | ETA 1m 15s | step 0.13s | KE 567.3151 | drift +2.45% | fluid 148.8340 | solid 418.4811
  Impulse FP iterations last/mean/max 15/16.47/20
Step  1700/2000   85.0% | t 85.000 | ETA 55s | step 0.15s | KE 564.3671 | drift +1.92% | fluid 180.3315 | solid 384.0356
  Impulse FP iterations last/mean/max 17/16.49/20
Step  1800/2000   90.0% | t 90.000 | ETA 36s | step 0.14s | KE 559.2983 | drift +1.00% | fluid 185.3245 | solid 373.9738
  Impulse FP iterations last/mean/max 16/16.48/20
Step  1900/2000   95.0% | t 95.000 | ETA 18s | step 0.16s | KE 558.2012 | drift +0.80% | fluid 220.4043 | solid 337.7969
  Impulse FP iterations last/mean/max 18/16.49/20
Solver finished successfully - good job!
Results saved successfully.

================== Run summary ==================
  Bodies:            2
  Triangles / nodes: 256 / 516
  Timesteps:         2000  (dt = 0.05)
  Simulated time:    0 -> 100
  First-step setup:  0.293 s
  Mean time/step:    0.1802 s  (excl. first step)
  Total wall time:   6m 0s
  Impulse FP iters last/mean/max: 17 / 16.503 / 20
  Approx impulse solves/step:     16.503
  Impulse start cache hits/direct: 1999 / 1
  Impulse global drift P/H:       1.673673e-9 / 1.285051e-1
  Impulse per-body max drift P/H: 4.291388e-9 / 8.261254e-2
  CPU cores:         256 available, 8 Rayon worker thread(s)
  Started:           2026-06-24 02:37:12
  Finished:          2026-06-24 02:43:13
  Output file:       /work/e643/e643/shared/multi_ellip/studies/departing_sphericity_sweep/runs/triaxial/homogeneous/triaxial_homogeneous_eps1_rho1_E0p5_sep8_run07_impulse_noproj/multiple_body_complete.dat
================================================
