
================ Simulation setup ================
  Run label:         /work/e643/e643/shared/multi_ellip/studies/two_body_paper_sweeps/runs/ellipsoid_1_0p8_0p6/ellipsoid_1_0p8_0p6_rho0p03_E11_sep8_run05_impulse_noproj/
  Started:           2026-06-24 02:49:21
  Input file:        /work/e643/e643/shared/multi_ellip/studies/two_body_paper_sweeps/runs/ellipsoid_1_0p8_0p6/ellipsoid_1_0p8_0p6_rho0p03_E11_sep8_run05_impulse_noproj/input.txt
  Output file:       /work/e643/e643/shared/multi_ellip/studies/two_body_paper_sweeps/runs/ellipsoid_1_0p8_0p6/ellipsoid_1_0p8_0p6_rho0p03_E11_sep8_run05_impulse_noproj/multiple_body_complete.dat
  Bodies:            2
  Fluid density:     1
  Mesh:              ndiv 2 -> 256 triangles / 516 nodes
  Simulated time:    0 -> 100  (dt = 0.05, ~2000 steps)
  Output cadence:    every 1 step(s)
  Output rows:       ~2001
  Progress cadence:  every 100 step(s)
  CPU cores:         256 available, 8 Rayon worker thread(s)
  Strong coupling:   disabled
  Impulse scheme:    enabled
  Hamiltonian step:  disabled
  Hamiltonian midpt: disabled
  Variational step:  disabled
  Energy projection: disabled
  Projection particular metric: Euclidean
  Fluid KE gradient: disabled  (eps = 0.001, scale = 1, linear = 1, angular = 1)
  Fluid KE discrete gradient: disabled
  Impulse pair metric correction: disabled  (mode = pair discrete-gradient, cutoff = all pairs, inner/outer = 0/0, eps = 0.001, linear scale = 1, angular scale = 0)
  Impulse metric correction: disabled  (internal load constraint = disabled)
  Impulse variational defect probe: disabled
  Impulse quadratic pressure: disabled  (scale = 1)
  Added-mass stab:   disabled
  Exact BEM geometry: disabled
  Exact singular BEM: disabled
  Legacy singular SLP diagnostic: disabled
  Phi-dot blend:     0 (off)

  Solver guidance:
    - Strong coupling: use for stiff close-coupled runs; slower but more implicit.
    - Impulse scheme: use when impulse/momentum conservation or KE drift is the focus. Recommended.
    - Added-mass stab: use for higher mesh counts (ndiv > 3) to preserve stability - deprecated.
================================================
Solver starting - good luck!

Initial state:
  Body  1
    density:          0.030000
    shape axes ratio: (1.000000, 0.800000, 0.600000)
    initial KE ratio: 11.000000
    position:         (-4.000000, 0.000000, 0.000000)
    velocity:         (1.062743, 0.497156, -0.451020)
    angular velocity: (-2.770847, -4.839165, 2.895394)
    orientation:      (w=0.934271, i=0.165310, j=0.312330, k=-0.047539)
  Body  2
    density:          0.030000
    shape axes ratio: (1.000000, 0.800000, 0.600000)
    initial KE ratio: 11.000000
    position:         (4.000000, 0.000000, 0.000000)
    velocity:         (1.123431, 0.525546, -0.476776)
    angular velocity: (-0.678776, -4.190790, 4.631950)
    orientation:      (w=-0.613013, i=-0.016210, j=0.246599, k=0.750427)

Preparing first step: implicit scheme, no bootstrap passes required.
First step may take longer than later steps.

First step completed in 0.535 s.

Step   100/2000    5.0% | t 5.000 | ETA 12m 59s | step 0.43s | KE 11.3726 | drift +0.05% | fluid 9.4294 | solid 1.9432
  Impulse FP iterations last/mean/max 30/29.78/30
Step   200/2000   10.0% | t 10.000 | ETA 12m 17s | step 0.42s | KE 11.2822 | drift -0.75% | fluid 8.9084 | solid 2.3738
  Impulse FP iterations last/mean/max 30/29.80/30
Step   300/2000   15.0% | t 15.000 | ETA 11m 37s | step 0.44s | KE 11.2142 | drift -1.35% | fluid 8.6323 | solid 2.5820
  Impulse FP iterations last/mean/max 30/29.84/30
Step   400/2000   20.0% | t 20.000 | ETA 10m 55s | step 0.42s | KE 11.2020 | drift -1.45% | fluid 9.1461 | solid 2.0559
  Impulse FP iterations last/mean/max 29/29.82/30
Step   500/2000   25.0% | t 25.000 | ETA 10m 15s | step 0.35s | KE 11.1681 | drift -1.75% | fluid 8.7424 | solid 2.4257
  Impulse FP iterations last/mean/max 26/29.82/30
Step   600/2000   30.0% | t 30.000 | ETA 9m 33s | step 0.39s | KE 11.1402 | drift -2.00% | fluid 8.1107 | solid 3.0295
  Impulse FP iterations last/mean/max 30/29.81/30
Step   700/2000   35.0% | t 35.000 | ETA 8m 46s | step 0.35s | KE 11.1306 | drift -2.08% | fluid 8.4936 | solid 2.6370
  Impulse FP iterations last/mean/max 28/29.80/30
Step   800/2000   40.0% | t 40.000 | ETA 8m 2s | step 0.41s | KE 11.1457 | drift -1.95% | fluid 8.6600 | solid 2.4858
  Impulse FP iterations last/mean/max 30/29.80/30
Step   900/2000   45.0% | t 45.000 | ETA 7m 19s | step 0.38s | KE 11.1368 | drift -2.03% | fluid 8.1594 | solid 2.9774
  Impulse FP iterations last/mean/max 30/29.81/30
Step  1000/2000   50.0% | t 50.000 | ETA 6m 38s | step 0.41s | KE 11.1201 | drift -2.17% | fluid 8.3326 | solid 2.7875
  Impulse FP iterations last/mean/max 30/29.80/30
Step  1100/2000   55.0% | t 55.000 | ETA 5m 59s | step 0.41s | KE 11.1472 | drift -1.94% | fluid 8.8010 | solid 2.3461
  Impulse FP iterations last/mean/max 30/29.80/30
Step  1200/2000   60.0% | t 60.000 | ETA 5m 19s | step 0.40s | KE 11.1713 | drift -1.72% | fluid 8.6855 | solid 2.4858
  Impulse FP iterations last/mean/max 30/29.80/30
Step  1300/2000   65.0% | t 65.000 | ETA 4m 40s | step 0.43s | KE 11.1360 | drift -2.03% | fluid 8.3357 | solid 2.8003
  Impulse FP iterations last/mean/max 30/29.81/30
Step  1400/2000   70.0% | t 70.000 | ETA 4m 0s | step 0.44s | KE 11.1532 | drift -1.88% | fluid 9.0042 | solid 2.1490
  Impulse FP iterations last/mean/max 30/29.81/30
Step  1500/2000   75.0% | t 75.000 | ETA 3m 21s | step 0.42s | KE 11.1944 | drift -1.52% | fluid 9.1521 | solid 2.0422
  Impulse FP iterations last/mean/max 30/29.81/30
Step  1600/2000   80.0% | t 80.000 | ETA 2m 40s | step 0.40s | KE 11.1816 | drift -1.63% | fluid 8.6300 | solid 2.5516
  Impulse FP iterations last/mean/max 30/29.80/30
Step  1700/2000   85.0% | t 85.000 | ETA 2m 0s | step 0.42s | KE 11.1501 | drift -1.91% | fluid 8.5858 | solid 2.5643
  Impulse FP iterations last/mean/max 30/29.81/30
Step  1800/2000   90.0% | t 90.000 | ETA 1m 20s | step 0.39s | KE 11.1652 | drift -1.78% | fluid 8.7396 | solid 2.4257
  Impulse FP iterations last/mean/max 30/29.81/30
Step  1900/2000   95.0% | t 95.000 | ETA 40s | step 0.42s | KE 11.1696 | drift -1.74% | fluid 9.0610 | solid 2.1086
  Impulse FP iterations last/mean/max 29/29.82/30
Solver finished successfully - good job!
Results saved successfully.

================== Run summary ==================
  Bodies:            2
  Triangles / nodes: 256 / 516
  Timesteps:         2000  (dt = 0.05)
  Simulated time:    0 -> 100
  First-step setup:  0.535 s
  Mean time/step:    0.4027 s  (excl. first step)
  Total wall time:   13m 25s
  Impulse FP iters last/mean/max: 30 / 29.817 / 30
  Approx impulse solves/step:     29.818
  Impulse start cache hits/direct: 1999 / 1
  Impulse global drift P/H:       2.858199e-6 / 2.179552e-2
  Impulse per-body max drift P/H: 6.058745e-6 / 1.290018e-2
  CPU cores:         256 available, 8 Rayon worker thread(s)
  Started:           2026-06-24 02:49:21
  Finished:          2026-06-24 03:02:47
  Output file:       /work/e643/e643/shared/multi_ellip/studies/two_body_paper_sweeps/runs/ellipsoid_1_0p8_0p6/ellipsoid_1_0p8_0p6_rho0p03_E11_sep8_run05_impulse_noproj/multiple_body_complete.dat
================================================
