
================ Simulation setup ================
  Run label:         /work/e643/e643/shared/multi_ellip/studies/two_body_paper_sweeps/runs/spheroid_1_0p7_0p7/spheroid_1_0p7_0p7_rho1_E0p2_sep8_run02_impulse_noproj/
  Started:           2026-06-22 19:34:19
  Input file:        /work/e643/e643/shared/multi_ellip/studies/two_body_paper_sweeps/runs/spheroid_1_0p7_0p7/spheroid_1_0p7_0p7_rho1_E0p2_sep8_run02_impulse_noproj/input.txt
  Output file:       /work/e643/e643/shared/multi_ellip/studies/two_body_paper_sweeps/runs/spheroid_1_0p7_0p7/spheroid_1_0p7_0p7_rho1_E0p2_sep8_run02_impulse_noproj/multiple_body_complete.dat
  Bodies:            2
  Fluid density:     1
  Mesh:              ndiv 2 -> 256 triangles / 516 nodes
  Simulated time:    0 -> 100  (dt = 0.05, ~2000 steps)
  Output cadence:    every 1 step(s)
  Output rows:       ~2001
  Progress cadence:  every 100 step(s)
  CPU cores:         256 available, 8 Rayon worker thread(s)
  Strong coupling:   disabled
  Impulse scheme:    enabled
  Hamiltonian step:  disabled
  Hamiltonian midpt: disabled
  Variational step:  disabled
  Energy projection: disabled
  Projection particular metric: Euclidean
  Fluid KE gradient: disabled  (eps = 0.001, scale = 1, linear = 1, angular = 1)
  Fluid KE discrete gradient: disabled
  Impulse pair metric correction: disabled  (mode = pair discrete-gradient, cutoff = all pairs, inner/outer = 0/0, eps = 0.001, linear scale = 1, angular scale = 0)
  Impulse metric correction: disabled  (internal load constraint = disabled)
  Impulse variational defect probe: disabled
  Impulse quadratic pressure: disabled  (scale = 1)
  Added-mass stab:   disabled
  Exact BEM geometry: disabled
  Exact singular BEM: disabled
  Legacy singular SLP diagnostic: disabled
  Phi-dot blend:     0 (off)

  Solver guidance:
    - Strong coupling: use for stiff close-coupled runs; slower but more implicit.
    - Impulse scheme: use when impulse/momentum conservation or KE drift is the focus. Recommended.
    - Added-mass stab: use for higher mesh counts (ndiv > 3) to preserve stability - deprecated.
================================================
Solver starting - good luck!

Initial state:
  Body  1
    density:          1.000000
    shape axes ratio: (1.000000, 0.700000, 0.700000)
    initial KE ratio: 0.200000
    position:         (-4.000000, 0.000000, 0.000000)
    velocity:         (2.180015, -0.688581, 8.463405)
    angular velocity: (-4.655678, -3.992150, 1.365948)
    orientation:      (w=0.577350, i=0.577350, j=0.577350, k=0.000000)
  Body  2
    density:          1.000000
    shape axes ratio: (1.000000, 0.700000, 0.700000)
    initial KE ratio: 0.200000
    position:         (4.000000, 0.000000, 0.000000)
    velocity:         (2.316292, -0.731625, 8.992471)
    angular velocity: (3.098241, -4.357315, -3.300473)
    orientation:      (w=0.577350, i=-0.577350, j=0.000000, k=0.577350)

Preparing first step: implicit scheme, no bootstrap passes required.
First step may take longer than later steps.

First step completed in 0.253 s.

Step   100/2000    5.0% | t 5.000 | ETA 4m 34s | step 0.14s | KE 611.7156 | drift +1.04% | fluid 203.7143 | solid 408.0012
  Impulse FP iterations last/mean/max 10/10.31/11
Step   200/2000   10.0% | t 10.000 | ETA 4m 22s | step 0.15s | KE 607.3983 | drift +0.33% | fluid 205.1799 | solid 402.2184
  Impulse FP iterations last/mean/max 10/10.32/11
Step   300/2000   15.0% | t 15.000 | ETA 4m 8s | step 0.16s | KE 609.1902 | drift +0.63% | fluid 199.5235 | solid 409.6667
  Impulse FP iterations last/mean/max 11/10.32/11
Step   400/2000   20.0% | t 20.000 | ETA 3m 54s | step 0.15s | KE 609.7780 | drift +0.72% | fluid 192.1008 | solid 417.6772
  Impulse FP iterations last/mean/max 10/10.32/11
Step   500/2000   25.0% | t 25.000 | ETA 3m 40s | step 0.15s | KE 610.0187 | drift +0.76% | fluid 184.3630 | solid 425.6556
  Impulse FP iterations last/mean/max 10/10.32/11
Step   600/2000   30.0% | t 30.000 | ETA 3m 25s | step 0.14s | KE 610.2565 | drift +0.80% | fluid 185.1491 | solid 425.1073
  Impulse FP iterations last/mean/max 10/10.32/11
Step   700/2000   35.0% | t 35.000 | ETA 3m 11s | step 0.15s | KE 609.9674 | drift +0.76% | fluid 186.2602 | solid 423.7072
  Impulse FP iterations last/mean/max 10/10.33/11
Step   800/2000   40.0% | t 40.000 | ETA 2m 56s | step 0.14s | KE 609.9750 | drift +0.76% | fluid 188.7700 | solid 421.2050
  Impulse FP iterations last/mean/max 10/10.32/11
Step   900/2000   45.0% | t 45.000 | ETA 2m 41s | step 0.15s | KE 610.4115 | drift +0.83% | fluid 184.3498 | solid 426.0617
  Impulse FP iterations last/mean/max 11/10.32/11
Step  1000/2000   50.0% | t 50.000 | ETA 2m 27s | step 0.13s | KE 610.7034 | drift +0.88% | fluid 184.1572 | solid 426.5462
  Impulse FP iterations last/mean/max 10/10.33/11
Step  1100/2000   55.0% | t 55.000 | ETA 2m 12s | step 0.13s | KE 610.4087 | drift +0.83% | fluid 186.9898 | solid 423.4189
  Impulse FP iterations last/mean/max 10/10.33/11
Step  1200/2000   60.0% | t 60.000 | ETA 1m 57s | step 0.15s | KE 609.5565 | drift +0.69% | fluid 197.3270 | solid 412.2295
  Impulse FP iterations last/mean/max 11/10.33/11
Step  1300/2000   65.0% | t 65.000 | ETA 1m 43s | step 0.14s | KE 609.0525 | drift +0.60% | fluid 200.2786 | solid 408.7739
  Impulse FP iterations last/mean/max 11/10.33/11
Step  1400/2000   70.0% | t 70.000 | ETA 1m 28s | step 0.16s | KE 608.9261 | drift +0.58% | fluid 199.7494 | solid 409.1767
  Impulse FP iterations last/mean/max 11/10.33/11
Step  1500/2000   75.0% | t 75.000 | ETA 1m 13s | step 0.16s | KE 609.1167 | drift +0.61% | fluid 195.4755 | solid 413.6413
  Impulse FP iterations last/mean/max 11/10.33/11
Step  1600/2000   80.0% | t 80.000 | ETA 58s | step 0.14s | KE 609.4828 | drift +0.68% | fluid 191.5867 | solid 417.8961
  Impulse FP iterations last/mean/max 10/10.33/11
Step  1700/2000   85.0% | t 85.000 | ETA 44s | step 0.14s | KE 609.5955 | drift +0.69% | fluid 192.8326 | solid 416.7630
  Impulse FP iterations last/mean/max 10/10.33/11
Step  1800/2000   90.0% | t 90.000 | ETA 29s | step 0.14s | KE 609.6703 | drift +0.71% | fluid 191.9182 | solid 417.7521
  Impulse FP iterations last/mean/max 10/10.34/11
Step  1900/2000   95.0% | t 95.000 | ETA 14s | step 0.13s | KE 609.9047 | drift +0.75% | fluid 191.3993 | solid 418.5054
  Impulse FP iterations last/mean/max 11/10.33/11
Solver finished successfully - good job!
Results saved successfully.

================== Run summary ==================
  Bodies:            2
  Triangles / nodes: 256 / 516
  Timesteps:         2000  (dt = 0.05)
  Simulated time:    0 -> 100
  First-step setup:  0.253 s
  Mean time/step:    0.1443 s  (excl. first step)
  Total wall time:   4m 48s
  Impulse FP iters last/mean/max: 11 / 10.332 / 11
  Approx impulse solves/step:     10.332
  Impulse start cache hits/direct: 1999 / 1
  Impulse global drift P/H:       2.761762e-8 / 9.167545e-3
  Impulse per-body max drift P/H: 2.792259e-8 / 1.079656e-3
  CPU cores:         256 available, 8 Rayon worker thread(s)
  Started:           2026-06-22 19:34:19
  Finished:          2026-06-22 19:39:09
  Output file:       /work/e643/e643/shared/multi_ellip/studies/two_body_paper_sweeps/runs/spheroid_1_0p7_0p7/spheroid_1_0p7_0p7_rho1_E0p2_sep8_run02_impulse_noproj/multiple_body_complete.dat
================================================
