
================ Simulation setup ================
  Run label:         /work/e643/e643/shared/multi_ellip/studies/two_body_paper_sweeps/runs/spheroid_1_0p7_0p7/spheroid_1_0p7_0p7_rho0p1_E0p55_sep3_run01_impulse_noproj/
  Started:           2026-06-22 19:52:04
  Input file:        /work/e643/e643/shared/multi_ellip/studies/two_body_paper_sweeps/runs/spheroid_1_0p7_0p7/spheroid_1_0p7_0p7_rho0p1_E0p55_sep3_run01_impulse_noproj/input.txt
  Output file:       /work/e643/e643/shared/multi_ellip/studies/two_body_paper_sweeps/runs/spheroid_1_0p7_0p7/spheroid_1_0p7_0p7_rho0p1_E0p55_sep3_run01_impulse_noproj/multiple_body_complete.dat
  Bodies:            2
  Fluid density:     1
  Mesh:              ndiv 2 -> 256 triangles / 516 nodes
  Simulated time:    0 -> 100  (dt = 0.05, ~2000 steps)
  Output cadence:    every 1 step(s)
  Output rows:       ~2001
  Progress cadence:  every 100 step(s)
  CPU cores:         256 available, 8 Rayon worker thread(s)
  Strong coupling:   disabled
  Impulse scheme:    enabled
  Hamiltonian step:  disabled
  Hamiltonian midpt: disabled
  Variational step:  disabled
  Energy projection: disabled
  Projection particular metric: Euclidean
  Fluid KE gradient: disabled  (eps = 0.001, scale = 1, linear = 1, angular = 1)
  Fluid KE discrete gradient: disabled
  Impulse pair metric correction: disabled  (mode = pair discrete-gradient, cutoff = all pairs, inner/outer = 0/0, eps = 0.001, linear scale = 1, angular scale = 0)
  Impulse metric correction: disabled  (internal load constraint = disabled)
  Impulse variational defect probe: disabled
  Impulse quadratic pressure: disabled  (scale = 1)
  Added-mass stab:   disabled
  Exact BEM geometry: disabled
  Exact singular BEM: disabled
  Legacy singular SLP diagnostic: disabled
  Phi-dot blend:     0 (off)

  Solver guidance:
    - Strong coupling: use for stiff close-coupled runs; slower but more implicit.
    - Impulse scheme: use when impulse/momentum conservation or KE drift is the focus. Recommended.
    - Added-mass stab: use for higher mesh counts (ndiv > 3) to preserve stability - deprecated.
================================================
Solver starting - good luck!

Initial state:
  Body  1
    density:          0.100000
    shape axes ratio: (1.000000, 0.700000, 0.700000)
    initial KE ratio: 0.550000
    position:         (-1.500000, 0.000000, 0.000000)
    velocity:         (0.754038, -0.735707, -5.513952)
    angular velocity: (-3.118408, 4.327639, -3.320465)
    orientation:      (w=0.447214, i=0.894427, j=0.000000, k=0.000000)
  Body  2
    density:          0.100000
    shape axes ratio: (1.000000, 0.700000, 0.700000)
    initial KE ratio: 0.550000
    position:         (1.500000, 0.000000, 0.000000)
    velocity:         (0.779121, -0.760181, -5.697374)
    angular velocity: (1.606566, 5.265846, -3.027909)
    orientation:      (w=0.707107, i=0.000000, j=0.707107, k=0.000000)

Preparing first step: implicit scheme, no bootstrap passes required.
First step may take longer than later steps.

First step completed in 0.345 s.

Step   100/2000    5.0% | t 5.000 | ETA 7m 31s | step 0.23s | KE 168.7413 | drift +67.39% | fluid 111.4817 | solid 57.2596
  Impulse FP iterations last/mean/max 16/16.55/19
Step   200/2000   10.0% | t 10.000 | ETA 7m 6s | step 0.23s | KE 177.5681 | drift +76.14% | fluid 112.4224 | solid 65.1457
  Impulse FP iterations last/mean/max 17/16.71/19
Step   300/2000   15.0% | t 15.000 | ETA 6m 40s | step 0.23s | KE 178.3121 | drift +76.88% | fluid 112.9604 | solid 65.3516
  Impulse FP iterations last/mean/max 17/16.76/19
Step   400/2000   20.0% | t 20.000 | ETA 6m 14s | step 0.24s | KE 178.8186 | drift +77.38% | fluid 112.5348 | solid 66.2838
  Impulse FP iterations last/mean/max 17/16.77/19
Step   500/2000   25.0% | t 25.000 | ETA 5m 51s | step 0.21s | KE 181.3529 | drift +79.90% | fluid 114.6475 | solid 66.7053
  Impulse FP iterations last/mean/max 16/16.76/19
Step   600/2000   30.0% | t 30.000 | ETA 5m 27s | step 0.23s | KE 185.9946 | drift +84.50% | fluid 118.9687 | solid 67.0260
  Impulse FP iterations last/mean/max 16/16.77/19
Step   700/2000   35.0% | t 35.000 | ETA 5m 4s | step 0.23s | KE 184.2603 | drift +82.78% | fluid 116.4667 | solid 67.7936
  Impulse FP iterations last/mean/max 16/16.78/19
Step   800/2000   40.0% | t 40.000 | ETA 4m 40s | step 0.24s | KE 179.6933 | drift +78.25% | fluid 113.8258 | solid 65.8675
  Impulse FP iterations last/mean/max 17/16.79/19
Step   900/2000   45.0% | t 45.000 | ETA 4m 17s | step 0.26s | KE 183.7209 | drift +82.25% | fluid 115.8903 | solid 67.8306
  Impulse FP iterations last/mean/max 17/16.79/19
Step  1000/2000   50.0% | t 50.000 | ETA 3m 53s | step 0.24s | KE 186.2548 | drift +84.76% | fluid 119.0923 | solid 67.1624
  Impulse FP iterations last/mean/max 17/16.80/19
Step  1100/2000   55.0% | t 55.000 | ETA 3m 28s | step 0.23s | KE 180.4649 | drift +79.02% | fluid 113.5856 | solid 66.8792
  Impulse FP iterations last/mean/max 18/16.80/19
Step  1200/2000   60.0% | t 60.000 | ETA 3m 4s | step 0.21s | KE 182.3796 | drift +80.92% | fluid 115.3060 | solid 67.0736
  Impulse FP iterations last/mean/max 16/16.79/19
Step  1300/2000   65.0% | t 65.000 | ETA 2m 40s | step 0.22s | KE 186.6498 | drift +85.15% | fluid 119.4121 | solid 67.2377
  Impulse FP iterations last/mean/max 17/16.79/19
Step  1400/2000   70.0% | t 70.000 | ETA 2m 17s | step 0.24s | KE 181.2627 | drift +79.81% | fluid 113.7753 | solid 67.4874
  Impulse FP iterations last/mean/max 17/16.79/19
Step  1500/2000   75.0% | t 75.000 | ETA 1m 54s | step 0.23s | KE 181.5542 | drift +80.10% | fluid 115.3612 | solid 66.1930
  Impulse FP iterations last/mean/max 18/16.80/19
Step  1600/2000   80.0% | t 80.000 | ETA 1m 31s | step 0.22s | KE 186.5132 | drift +85.02% | fluid 118.3119 | solid 68.2013
  Impulse FP iterations last/mean/max 17/16.80/19
Step  1700/2000   85.0% | t 85.000 | ETA 1m 8s | step 0.22s | KE 182.2317 | drift +80.77% | fluid 115.5517 | solid 66.6801
  Impulse FP iterations last/mean/max 16/16.80/20
Step  1800/2000   90.0% | t 90.000 | ETA 45s | step 0.19s | KE 180.8425 | drift +79.39% | fluid 113.9127 | solid 66.9298
  Impulse FP iterations last/mean/max 17/16.80/20
Step  1900/2000   95.0% | t 95.000 | ETA 22s | step 0.16s | KE 186.4164 | drift +84.92% | fluid 118.8254 | solid 67.5910
  Impulse FP iterations last/mean/max 17/16.81/20
Solver finished successfully - good job!
Results saved successfully.

================== Run summary ==================
  Bodies:            2
  Triangles / nodes: 256 / 516
  Timesteps:         2000  (dt = 0.05)
  Simulated time:    0 -> 100
  First-step setup:  0.345 s
  Mean time/step:    0.2221 s  (excl. first step)
  Total wall time:   7m 24s
  Impulse FP iters last/mean/max: 16 / 16.809 / 20
  Approx impulse solves/step:     16.809
  Impulse start cache hits/direct: 1999 / 1
  Impulse global drift P/H:       4.138460e-8 / 9.241316e-2
  Impulse per-body max drift P/H: 5.341265e-8 / 3.108091e-2
  CPU cores:         256 available, 8 Rayon worker thread(s)
  Started:           2026-06-22 19:52:04
  Finished:          2026-06-22 19:59:28
  Output file:       /work/e643/e643/shared/multi_ellip/studies/two_body_paper_sweeps/runs/spheroid_1_0p7_0p7/spheroid_1_0p7_0p7_rho0p1_E0p55_sep3_run01_impulse_noproj/multiple_body_complete.dat
================================================
