
================ Simulation setup ================
  Run label:         /work/e643/e643/shared/multi_ellip/studies/two_body_paper_sweeps/runs/ellipsoid_1_0p8_0p6/ellipsoid_1_0p8_0p6_rho0p1_E4_sep11_run02_impulse_noproj/
  Started:           2026-06-22 19:54:16
  Input file:        /work/e643/e643/shared/multi_ellip/studies/two_body_paper_sweeps/runs/ellipsoid_1_0p8_0p6/ellipsoid_1_0p8_0p6_rho0p1_E4_sep11_run02_impulse_noproj/input.txt
  Output file:       /work/e643/e643/shared/multi_ellip/studies/two_body_paper_sweeps/runs/ellipsoid_1_0p8_0p6/ellipsoid_1_0p8_0p6_rho0p1_E4_sep11_run02_impulse_noproj/multiple_body_complete.dat
  Bodies:            2
  Fluid density:     1
  Mesh:              ndiv 2 -> 256 triangles / 516 nodes
  Simulated time:    0 -> 100  (dt = 0.05, ~2000 steps)
  Output cadence:    every 1 step(s)
  Output rows:       ~2001
  Progress cadence:  every 100 step(s)
  CPU cores:         256 available, 8 Rayon worker thread(s)
  Strong coupling:   disabled
  Impulse scheme:    enabled
  Hamiltonian step:  disabled
  Hamiltonian midpt: disabled
  Variational step:  disabled
  Energy projection: disabled
  Projection particular metric: Euclidean
  Fluid KE gradient: disabled  (eps = 0.001, scale = 1, linear = 1, angular = 1)
  Fluid KE discrete gradient: disabled
  Impulse pair metric correction: disabled  (mode = pair discrete-gradient, cutoff = all pairs, inner/outer = 0/0, eps = 0.001, linear scale = 1, angular scale = 0)
  Impulse metric correction: disabled  (internal load constraint = disabled)
  Impulse variational defect probe: disabled
  Impulse quadratic pressure: disabled  (scale = 1)
  Added-mass stab:   disabled
  Exact BEM geometry: disabled
  Exact singular BEM: disabled
  Legacy singular SLP diagnostic: disabled
  Phi-dot blend:     0 (off)

  Solver guidance:
    - Strong coupling: use for stiff close-coupled runs; slower but more implicit.
    - Impulse scheme: use when impulse/momentum conservation or KE drift is the focus. Recommended.
    - Added-mass stab: use for higher mesh counts (ndiv > 3) to preserve stability - deprecated.
================================================
Solver starting - good luck!

Initial state:
  Body  1
    density:          0.100000
    shape axes ratio: (1.000000, 0.800000, 0.600000)
    initial KE ratio: 4.000000
    position:         (-5.500000, 0.000000, 0.000000)
    velocity:         (0.480637, 1.045250, -1.677802)
    angular velocity: (-2.864358, -5.590425, -0.144983)
    orientation:      (w=0.577350, i=0.577350, j=0.577350, k=0.000000)
  Body  2
    density:          0.100000
    shape axes ratio: (1.000000, 0.800000, 0.600000)
    initial KE ratio: 4.000000
    position:         (5.500000, 0.000000, 0.000000)
    velocity:         (0.499598, 1.086484, -1.743989)
    angular velocity: (0.496104, -5.904513, -2.090222)
    orientation:      (w=0.577350, i=-0.577350, j=0.000000, k=0.577350)

Preparing first step: implicit scheme, no bootstrap passes required.
First step may take longer than later steps.

First step completed in 0.461 s.

Step   100/2000    5.0% | t 5.000 | ETA 8m 24s | step 0.26s | KE 21.9930 | drift +1.20% | fluid 13.6161 | solid 8.3768
  Impulse FP iterations last/mean/max 19/19.48/22
Step   200/2000   10.0% | t 10.000 | ETA 7m 50s | step 0.25s | KE 22.1945 | drift +2.13% | fluid 13.1099 | solid 9.0846
  Impulse FP iterations last/mean/max 21/19.34/22
Step   300/2000   15.0% | t 15.000 | ETA 7m 17s | step 0.22s | KE 22.4863 | drift +3.47% | fluid 13.0994 | solid 9.3869
  Impulse FP iterations last/mean/max 18/19.31/23
Step   400/2000   20.0% | t 20.000 | ETA 6m 43s | step 0.21s | KE 22.8142 | drift +4.98% | fluid 14.2159 | solid 8.5983
  Impulse FP iterations last/mean/max 19/19.34/23
Step   500/2000   25.0% | t 25.000 | ETA 6m 15s | step 0.26s | KE 22.9913 | drift +5.80% | fluid 13.3816 | solid 9.6097
  Impulse FP iterations last/mean/max 20/19.32/23
Step   600/2000   30.0% | t 30.000 | ETA 5m 45s | step 0.23s | KE 23.4309 | drift +7.82% | fluid 13.8814 | solid 9.5495
  Impulse FP iterations last/mean/max 20/19.33/23
Step   700/2000   35.0% | t 35.000 | ETA 5m 16s | step 0.19s | KE 23.6195 | drift +8.69% | fluid 12.8649 | solid 10.7547
  Impulse FP iterations last/mean/max 19/19.36/23
Step   800/2000   40.0% | t 40.000 | ETA 4m 46s | step 0.20s | KE 23.9567 | drift +10.24% | fluid 13.5252 | solid 10.4315
  Impulse FP iterations last/mean/max 17/19.35/23
Step   900/2000   45.0% | t 45.000 | ETA 4m 20s | step 0.21s | KE 24.2644 | drift +11.65% | fluid 13.7355 | solid 10.5289
  Impulse FP iterations last/mean/max 19/19.38/23
Step  1000/2000   50.0% | t 50.000 | ETA 3m 56s | step 0.24s | KE 24.4431 | drift +12.48% | fluid 12.8273 | solid 11.6158
  Impulse FP iterations last/mean/max 19/19.38/23
Step  1100/2000   55.0% | t 55.000 | ETA 3m 33s | step 0.21s | KE 24.8380 | drift +14.29% | fluid 14.0699 | solid 10.7682
  Impulse FP iterations last/mean/max 17/19.38/23
Step  1200/2000   60.0% | t 60.000 | ETA 3m 9s | step 0.26s | KE 25.0978 | drift +15.49% | fluid 14.6351 | solid 10.4627
  Impulse FP iterations last/mean/max 20/19.38/23
Step  1300/2000   65.0% | t 65.000 | ETA 2m 46s | step 0.27s | KE 25.2828 | drift +16.34% | fluid 14.6580 | solid 10.6249
  Impulse FP iterations last/mean/max 21/19.40/23
Step  1400/2000   70.0% | t 70.000 | ETA 2m 23s | step 0.24s | KE 25.7438 | drift +18.46% | fluid 14.8251 | solid 10.9187
  Impulse FP iterations last/mean/max 19/19.40/23
Step  1500/2000   75.0% | t 75.000 | ETA 1m 59s | step 0.29s | KE 25.8674 | drift +19.03% | fluid 15.0616 | solid 10.8058
  Impulse FP iterations last/mean/max 21/19.40/23
Step  1600/2000   80.0% | t 80.000 | ETA 1m 35s | step 0.21s | KE 26.0973 | drift +20.09% | fluid 14.7048 | solid 11.3925
  Impulse FP iterations last/mean/max 18/19.41/23
Step  1700/2000   85.0% | t 85.000 | ETA 1m 11s | step 0.24s | KE 26.4077 | drift +21.52% | fluid 15.2870 | solid 11.1207
  Impulse FP iterations last/mean/max 19/19.41/23
Step  1800/2000   90.0% | t 90.000 | ETA 47s | step 0.23s | KE 26.5411 | drift +22.13% | fluid 14.3967 | solid 12.1445
  Impulse FP iterations last/mean/max 19/19.43/23
Step  1900/2000   95.0% | t 95.000 | ETA 23s | step 0.23s | KE 26.6913 | drift +22.82% | fluid 15.7240 | solid 10.9672
  Impulse FP iterations last/mean/max 21/19.44/23
Solver finished successfully - good job!
Results saved successfully.

================== Run summary ==================
  Bodies:            2
  Triangles / nodes: 256 / 516
  Timesteps:         2000  (dt = 0.05)
  Simulated time:    0 -> 100
  First-step setup:  0.461 s
  Mean time/step:    0.2381 s  (excl. first step)
  Total wall time:   7m 56s
  Impulse FP iters last/mean/max: 20 / 19.450 / 23
  Approx impulse solves/step:     19.450
  Impulse start cache hits/direct: 1999 / 1
  Impulse global drift P/H:       7.838305e-8 / 1.732684e-2
  Impulse per-body max drift P/H: 9.204170e-8 / 2.010106e-3
  CPU cores:         256 available, 8 Rayon worker thread(s)
  Started:           2026-06-22 19:54:16
  Finished:          2026-06-22 20:02:12
  Output file:       /work/e643/e643/shared/multi_ellip/studies/two_body_paper_sweeps/runs/ellipsoid_1_0p8_0p6/ellipsoid_1_0p8_0p6_rho0p1_E4_sep11_run02_impulse_noproj/multiple_body_complete.dat
================================================
