
================ Simulation setup ================
  Run label:         /work/e643/e643/shared/multi_ellip/studies/two_body_paper_sweeps/runs/ellipsoid_1_0p8_0p6/ellipsoid_1_0p8_0p6_rho1_E1p5_sep8_run05_impulse_noproj/
  Started:           2026-06-24 01:38:55
  Input file:        /work/e643/e643/shared/multi_ellip/studies/two_body_paper_sweeps/runs/ellipsoid_1_0p8_0p6/ellipsoid_1_0p8_0p6_rho1_E1p5_sep8_run05_impulse_noproj/input.txt
  Output file:       /work/e643/e643/shared/multi_ellip/studies/two_body_paper_sweeps/runs/ellipsoid_1_0p8_0p6/ellipsoid_1_0p8_0p6_rho1_E1p5_sep8_run05_impulse_noproj/multiple_body_complete.dat
  Bodies:            2
  Fluid density:     1
  Mesh:              ndiv 2 -> 256 triangles / 516 nodes
  Simulated time:    0 -> 100  (dt = 0.05, ~2000 steps)
  Output cadence:    every 1 step(s)
  Output rows:       ~2001
  Progress cadence:  every 100 step(s)
  CPU cores:         256 available, 8 Rayon worker thread(s)
  Strong coupling:   disabled
  Impulse scheme:    enabled
  Hamiltonian step:  disabled
  Hamiltonian midpt: disabled
  Variational step:  disabled
  Energy projection: disabled
  Projection particular metric: Euclidean
  Fluid KE gradient: disabled  (eps = 0.001, scale = 1, linear = 1, angular = 1)
  Fluid KE discrete gradient: disabled
  Impulse pair metric correction: disabled  (mode = pair discrete-gradient, cutoff = all pairs, inner/outer = 0/0, eps = 0.001, linear scale = 1, angular scale = 0)
  Impulse metric correction: disabled  (internal load constraint = disabled)
  Impulse variational defect probe: disabled
  Impulse quadratic pressure: disabled  (scale = 1)
  Added-mass stab:   disabled
  Exact BEM geometry: disabled
  Exact singular BEM: disabled
  Legacy singular SLP diagnostic: disabled
  Phi-dot blend:     0 (off)

  Solver guidance:
    - Strong coupling: use for stiff close-coupled runs; slower but more implicit.
    - Impulse scheme: use when impulse/momentum conservation or KE drift is the focus. Recommended.
    - Added-mass stab: use for higher mesh counts (ndiv > 3) to preserve stability - deprecated.
================================================
Solver starting - good luck!

Initial state:
  Body  1
    density:          1.000000
    shape axes ratio: (1.000000, 0.800000, 0.600000)
    initial KE ratio: 1.500000
    position:         (-4.000000, 0.000000, 0.000000)
    velocity:         (-1.421337, -2.270854, 2.066185)
    angular velocity: (2.046726, 5.805190, -1.260593)
    orientation:      (w=-0.808707, i=-0.546521, j=-0.131986, k=-0.172880)
  Body  2
    density:          1.000000
    shape axes ratio: (1.000000, 0.800000, 0.600000)
    initial KE ratio: 1.500000
    position:         (4.000000, 0.000000, 0.000000)
    velocity:         (-1.384091, -2.211346, 2.012040)
    angular velocity: (3.299603, 5.302041, -0.692388)
    orientation:      (w=0.200800, i=0.103739, j=0.836747, k=-0.498770)

Preparing first step: implicit scheme, no bootstrap passes required.
First step may take longer than later steps.

First step completed in 0.303 s.

Step   100/2000    5.0% | t 5.000 | ETA 4m 59s | step 0.16s | KE 149.1420 | drift -1.29% | fluid 35.3974 | solid 113.7446
  Impulse FP iterations last/mean/max 12/11.01/12
Step   200/2000   10.0% | t 10.000 | ETA 4m 43s | step 0.15s | KE 151.3603 | drift +0.18% | fluid 33.2566 | solid 118.1037
  Impulse FP iterations last/mean/max 11/10.94/12
Step   300/2000   15.0% | t 15.000 | ETA 4m 30s | step 0.16s | KE 156.0450 | drift +3.28% | fluid 33.1380 | solid 122.9070
  Impulse FP iterations last/mean/max 11/11.01/12
Step   400/2000   20.0% | t 20.000 | ETA 4m 15s | step 0.16s | KE 155.3865 | drift +2.84% | fluid 28.9906 | solid 126.3959
  Impulse FP iterations last/mean/max 11/11.05/12
Step   500/2000   25.0% | t 25.000 | ETA 3m 59s | step 0.16s | KE 154.6916 | drift +2.38% | fluid 33.1140 | solid 121.5777
  Impulse FP iterations last/mean/max 11/11.05/12
Step   600/2000   30.0% | t 30.000 | ETA 3m 43s | step 0.17s | KE 155.4393 | drift +2.88% | fluid 34.5755 | solid 120.8637
  Impulse FP iterations last/mean/max 11/11.04/12
Step   700/2000   35.0% | t 35.000 | ETA 3m 26s | step 0.15s | KE 156.0011 | drift +3.25% | fluid 32.7269 | solid 123.2741
  Impulse FP iterations last/mean/max 11/11.04/12
Step   800/2000   40.0% | t 40.000 | ETA 3m 10s | step 0.17s | KE 155.9134 | drift +3.19% | fluid 37.1417 | solid 118.7718
  Impulse FP iterations last/mean/max 12/11.03/12
Step   900/2000   45.0% | t 45.000 | ETA 2m 54s | step 0.17s | KE 155.9128 | drift +3.19% | fluid 36.5613 | solid 119.3515
  Impulse FP iterations last/mean/max 11/11.00/12
Step  1000/2000   50.0% | t 50.000 | ETA 2m 38s | step 0.15s | KE 155.6591 | drift +3.02% | fluid 33.5123 | solid 122.1469
  Impulse FP iterations last/mean/max 11/10.98/12
Step  1100/2000   55.0% | t 55.000 | ETA 2m 22s | step 0.15s | KE 155.6802 | drift +3.04% | fluid 33.0662 | solid 122.6140
  Impulse FP iterations last/mean/max 11/10.99/12
Step  1200/2000   60.0% | t 60.000 | ETA 2m 6s | step 0.14s | KE 155.7564 | drift +3.09% | fluid 33.8688 | solid 121.8876
  Impulse FP iterations last/mean/max 11/10.99/12
Step  1300/2000   65.0% | t 65.000 | ETA 1m 50s | step 0.16s | KE 155.6651 | drift +3.03% | fluid 31.1925 | solid 124.4725
  Impulse FP iterations last/mean/max 11/10.99/12
Step  1400/2000   70.0% | t 70.000 | ETA 1m 34s | step 0.17s | KE 155.7153 | drift +3.06% | fluid 35.0534 | solid 120.6618
  Impulse FP iterations last/mean/max 11/10.99/12
Step  1500/2000   75.0% | t 75.000 | ETA 1m 19s | step 0.15s | KE 155.7874 | drift +3.11% | fluid 36.9545 | solid 118.8329
  Impulse FP iterations last/mean/max 10/10.98/12
Step  1600/2000   80.0% | t 80.000 | ETA 1m 3s | step 0.15s | KE 155.6581 | drift +3.02% | fluid 31.0966 | solid 124.5616
  Impulse FP iterations last/mean/max 11/10.98/12
Step  1700/2000   85.0% | t 85.000 | ETA 47s | step 0.16s | KE 155.7684 | drift +3.10% | fluid 35.4312 | solid 120.3372
  Impulse FP iterations last/mean/max 10/10.97/12
Step  1800/2000   90.0% | t 90.000 | ETA 31s | step 0.14s | KE 155.7622 | drift +3.09% | fluid 32.3400 | solid 123.4221
  Impulse FP iterations last/mean/max 11/10.97/12
Step  1900/2000   95.0% | t 95.000 | ETA 15s | step 0.12s | KE 155.6318 | drift +3.01% | fluid 35.1854 | solid 120.4464
  Impulse FP iterations last/mean/max 11/10.97/12
Solver finished successfully - good job!
Results saved successfully.

================== Run summary ==================
  Bodies:            2
  Triangles / nodes: 256 / 516
  Timesteps:         2000  (dt = 0.05)
  Simulated time:    0 -> 100
  First-step setup:  0.303 s
  Mean time/step:    0.1557 s  (excl. first step)
  Total wall time:   5m 11s
  Impulse FP iters last/mean/max: 11 / 10.966 / 12
  Approx impulse solves/step:     10.967
  Impulse start cache hits/direct: 1999 / 1
  Impulse global drift P/H:       6.915674e-9 / 8.721068e-3
  Impulse per-body max drift P/H: 1.093596e-8 / 3.139340e-3
  CPU cores:         256 available, 8 Rayon worker thread(s)
  Started:           2026-06-24 01:38:55
  Finished:          2026-06-24 01:44:07
  Output file:       /work/e643/e643/shared/multi_ellip/studies/two_body_paper_sweeps/runs/ellipsoid_1_0p8_0p6/ellipsoid_1_0p8_0p6_rho1_E1p5_sep8_run05_impulse_noproj/multiple_body_complete.dat
================================================
