
================ Simulation setup ================
  Run label:         /work/e643/e643/shared/multi_ellip/studies/two_body_paper_sweeps/runs/spheroid_1_0p7_0p7/spheroid_1_0p7_0p7_rho0p03_E0p2_sep11_run05_impulse_noproj/
  Started:           2026-06-24 02:15:06
  Input file:        /work/e643/e643/shared/multi_ellip/studies/two_body_paper_sweeps/runs/spheroid_1_0p7_0p7/spheroid_1_0p7_0p7_rho0p03_E0p2_sep11_run05_impulse_noproj/input.txt
  Output file:       /work/e643/e643/shared/multi_ellip/studies/two_body_paper_sweeps/runs/spheroid_1_0p7_0p7/spheroid_1_0p7_0p7_rho0p03_E0p2_sep11_run05_impulse_noproj/multiple_body_complete.dat
  Bodies:            2
  Fluid density:     1
  Mesh:              ndiv 2 -> 256 triangles / 516 nodes
  Simulated time:    0 -> 100  (dt = 0.05, ~2000 steps)
  Output cadence:    every 1 step(s)
  Output rows:       ~2001
  Progress cadence:  every 100 step(s)
  CPU cores:         256 available, 8 Rayon worker thread(s)
  Strong coupling:   disabled
  Impulse scheme:    enabled
  Hamiltonian step:  disabled
  Hamiltonian midpt: disabled
  Variational step:  disabled
  Energy projection: disabled
  Projection particular metric: Euclidean
  Fluid KE gradient: disabled  (eps = 0.001, scale = 1, linear = 1, angular = 1)
  Fluid KE discrete gradient: disabled
  Impulse pair metric correction: disabled  (mode = pair discrete-gradient, cutoff = all pairs, inner/outer = 0/0, eps = 0.001, linear scale = 1, angular scale = 0)
  Impulse metric correction: disabled  (internal load constraint = disabled)
  Impulse variational defect probe: disabled
  Impulse quadratic pressure: disabled  (scale = 1)
  Added-mass stab:   disabled
  Exact BEM geometry: disabled
  Exact singular BEM: disabled
  Legacy singular SLP diagnostic: disabled
  Phi-dot blend:     0 (off)

  Solver guidance:
    - Strong coupling: use for stiff close-coupled runs; slower but more implicit.
    - Impulse scheme: use when impulse/momentum conservation or KE drift is the focus. Recommended.
    - Added-mass stab: use for higher mesh counts (ndiv > 3) to preserve stability - deprecated.
================================================
Solver starting - good luck!

Initial state:
  Body  1
    density:          0.030000
    shape axes ratio: (1.000000, 0.700000, 0.700000)
    initial KE ratio: 0.200000
    position:         (-5.500000, 0.000000, 0.000000)
    velocity:         (-2.037938, -8.392533, 2.459171)
    angular velocity: (-4.131501, 3.597636, -3.076709)
    orientation:      (w=-0.250495, i=-0.506145, j=0.027642, k=0.824806)
  Body  2
    density:          0.030000
    shape axes ratio: (1.000000, 0.700000, 0.700000)
    initial KE ratio: 0.200000
    position:         (5.500000, 0.000000, 0.000000)
    velocity:         (-1.893499, -7.797712, 2.284877)
    angular velocity: (-5.523169, 2.995351, 0.029913)
    orientation:      (w=0.506976, i=0.072659, j=0.413725, k=0.752680)

Preparing first step: implicit scheme, no bootstrap passes required.
First step may take longer than later steps.

First step completed in 0.467 s.

Step   100/2000    5.0% | t 5.000 | ETA 8m 4s | step 0.23s | KE 195.2692 | drift -0.18% | fluid 183.4333 | solid 11.8359
  Impulse FP iterations last/mean/max 19/20.04/22
Step   200/2000   10.0% | t 10.000 | ETA 7m 29s | step 0.22s | KE 194.5083 | drift -0.56% | fluid 181.3109 | solid 13.1974
  Impulse FP iterations last/mean/max 19/20.00/22
Step   300/2000   15.0% | t 15.000 | ETA 6m 58s | step 0.28s | KE 195.3134 | drift -0.15% | fluid 182.8425 | solid 12.4709
  Impulse FP iterations last/mean/max 20/19.98/22
Step   400/2000   20.0% | t 20.000 | ETA 6m 30s | step 0.24s | KE 195.2497 | drift -0.19% | fluid 184.1170 | solid 11.1327
  Impulse FP iterations last/mean/max 20/20.00/22
Step   500/2000   25.0% | t 25.000 | ETA 6m 3s | step 0.24s | KE 195.8082 | drift +0.10% | fluid 183.8855 | solid 11.9227
  Impulse FP iterations last/mean/max 20/19.99/22
Step   600/2000   30.0% | t 30.000 | ETA 5m 39s | step 0.24s | KE 195.1416 | drift -0.24% | fluid 183.1797 | solid 11.9619
  Impulse FP iterations last/mean/max 20/20.00/22
Step   700/2000   35.0% | t 35.000 | ETA 5m 16s | step 0.25s | KE 194.4911 | drift -0.57% | fluid 181.3645 | solid 13.1266
  Impulse FP iterations last/mean/max 19/19.99/23
Step   800/2000   40.0% | t 40.000 | ETA 4m 52s | step 0.23s | KE 195.3791 | drift -0.12% | fluid 182.8709 | solid 12.5082
  Impulse FP iterations last/mean/max 19/19.99/23
Step   900/2000   45.0% | t 45.000 | ETA 4m 28s | step 0.24s | KE 195.3118 | drift -0.15% | fluid 184.4100 | solid 10.9018
  Impulse FP iterations last/mean/max 20/19.98/23
Step  1000/2000   50.0% | t 50.000 | ETA 4m 4s | step 0.20s | KE 195.7264 | drift +0.06% | fluid 183.6656 | solid 12.0608
  Impulse FP iterations last/mean/max 18/20.00/23
Step  1100/2000   55.0% | t 55.000 | ETA 3m 39s | step 0.26s | KE 195.0617 | drift -0.28% | fluid 182.9175 | solid 12.1442
  Impulse FP iterations last/mean/max 18/20.00/23
Step  1200/2000   60.0% | t 60.000 | ETA 3m 15s | step 0.24s | KE 194.5717 | drift -0.53% | fluid 181.5986 | solid 12.9731
  Impulse FP iterations last/mean/max 20/20.01/23
Step  1300/2000   65.0% | t 65.000 | ETA 2m 51s | step 0.21s | KE 195.4006 | drift -0.11% | fluid 182.8587 | solid 12.5418
  Impulse FP iterations last/mean/max 19/20.00/23
Step  1400/2000   70.0% | t 70.000 | ETA 2m 26s | step 0.24s | KE 195.3416 | drift -0.14% | fluid 184.5914 | solid 10.7502
  Impulse FP iterations last/mean/max 20/20.01/23
Step  1500/2000   75.0% | t 75.000 | ETA 2m 1s | step 0.23s | KE 195.7050 | drift +0.05% | fluid 183.5894 | solid 12.1156
  Impulse FP iterations last/mean/max 20/20.00/23
Step  1600/2000   80.0% | t 80.000 | ETA 1m 35s | step 0.22s | KE 194.9354 | drift -0.35% | fluid 182.5415 | solid 12.3940
  Impulse FP iterations last/mean/max 20/20.01/23
Step  1700/2000   85.0% | t 85.000 | ETA 1m 11s | step 0.19s | KE 194.6743 | drift -0.48% | fluid 181.8951 | solid 12.7792
  Impulse FP iterations last/mean/max 20/20.01/23
Step  1800/2000   90.0% | t 90.000 | ETA 47s | step 0.21s | KE 195.4313 | drift -0.09% | fluid 182.9040 | solid 12.5273
  Impulse FP iterations last/mean/max 21/20.01/23
Step  1900/2000   95.0% | t 95.000 | ETA 23s | step 0.21s | KE 195.3344 | drift -0.14% | fluid 184.6242 | solid 10.7102
  Impulse FP iterations last/mean/max 20/20.01/23
Solver finished successfully - good job!
Results saved successfully.

================== Run summary ==================
  Bodies:            2
  Triangles / nodes: 256 / 516
  Timesteps:         2000  (dt = 0.05)
  Simulated time:    0 -> 100
  First-step setup:  0.467 s
  Mean time/step:    0.2324 s  (excl. first step)
  Total wall time:   7m 45s
  Impulse FP iters last/mean/max: 21 / 20.006 / 23
  Approx impulse solves/step:     20.006
  Impulse start cache hits/direct: 1999 / 1
  Impulse global drift P/H:       2.372936e-8 / 1.965290e-3
  Impulse per-body max drift P/H: 7.548842e-8 / 7.538409e-4
  CPU cores:         256 available, 8 Rayon worker thread(s)
  Started:           2026-06-24 02:15:06
  Finished:          2026-06-24 02:22:51
  Output file:       /work/e643/e643/shared/multi_ellip/studies/two_body_paper_sweeps/runs/spheroid_1_0p7_0p7/spheroid_1_0p7_0p7_rho0p03_E0p2_sep11_run05_impulse_noproj/multiple_body_complete.dat
================================================
