
================ Simulation setup ================
  Run label:         /work/e643/e643/shared/multi_ellip/studies/two_body_paper_sweeps/runs/ellipsoid_1_0p8_0p6/ellipsoid_1_0p8_0p6_rho4_E30_sep8_run03_impulse_noproj/
  Started:           2026-06-24 01:33:26
  Input file:        /work/e643/e643/shared/multi_ellip/studies/two_body_paper_sweeps/runs/ellipsoid_1_0p8_0p6/ellipsoid_1_0p8_0p6_rho4_E30_sep8_run03_impulse_noproj/input.txt
  Output file:       /work/e643/e643/shared/multi_ellip/studies/two_body_paper_sweeps/runs/ellipsoid_1_0p8_0p6/ellipsoid_1_0p8_0p6_rho4_E30_sep8_run03_impulse_noproj/multiple_body_complete.dat
  Bodies:            2
  Fluid density:     1
  Mesh:              ndiv 2 -> 256 triangles / 516 nodes
  Simulated time:    0 -> 100  (dt = 0.05, ~2000 steps)
  Output cadence:    every 1 step(s)
  Output rows:       ~2001
  Progress cadence:  every 100 step(s)
  CPU cores:         256 available, 8 Rayon worker thread(s)
  Strong coupling:   disabled
  Impulse scheme:    enabled
  Hamiltonian step:  disabled
  Hamiltonian midpt: disabled
  Variational step:  disabled
  Energy projection: disabled
  Projection particular metric: Euclidean
  Fluid KE gradient: disabled  (eps = 0.001, scale = 1, linear = 1, angular = 1)
  Fluid KE discrete gradient: disabled
  Impulse pair metric correction: disabled  (mode = pair discrete-gradient, cutoff = all pairs, inner/outer = 0/0, eps = 0.001, linear scale = 1, angular scale = 0)
  Impulse metric correction: disabled  (internal load constraint = disabled)
  Impulse variational defect probe: disabled
  Impulse quadratic pressure: disabled  (scale = 1)
  Added-mass stab:   disabled
  Exact BEM geometry: disabled
  Exact singular BEM: disabled
  Legacy singular SLP diagnostic: disabled
  Phi-dot blend:     0 (off)

  Solver guidance:
    - Strong coupling: use for stiff close-coupled runs; slower but more implicit.
    - Impulse scheme: use when impulse/momentum conservation or KE drift is the focus. Recommended.
    - Added-mass stab: use for higher mesh counts (ndiv > 3) to preserve stability - deprecated.
================================================
Solver starting - good luck!

Initial state:
  Body  1
    density:          4.000000
    shape axes ratio: (1.000000, 0.800000, 0.600000)
    initial KE ratio: 30.000000
    position:         (-4.000000, 0.000000, 0.000000)
    velocity:         (-0.352848, 0.472002, 0.563084)
    angular velocity: (-1.618243, 2.657028, -5.458929)
    orientation:      (w=-0.684994, i=-0.606319, j=-0.077337, k=-0.396459)
  Body  2
    density:          4.000000
    shape axes ratio: (1.000000, 0.800000, 0.600000)
    initial KE ratio: 30.000000
    position:         (4.000000, 0.000000, 0.000000)
    velocity:         (-0.319074, 0.426823, 0.509187)
    angular velocity: (3.495472, -4.988754, 1.540268)
    orientation:      (w=-0.098544, i=-0.064041, j=-0.356181, k=0.926997)

Preparing first step: implicit scheme, no bootstrap passes required.
First step may take longer than later steps.

First step completed in 0.228 s.

Step   100/2000    5.0% | t 5.000 | ETA 3m 31s | step 0.12s | KE 329.8363 | drift +0.00% | fluid 5.7409 | solid 324.0954
  Impulse FP iterations last/mean/max 8/8.65/9
Step   200/2000   10.0% | t 10.000 | ETA 3m 31s | step 0.13s | KE 329.8013 | drift -0.01% | fluid 9.2177 | solid 320.5836
  Impulse FP iterations last/mean/max 9/8.72/9
Step   300/2000   15.0% | t 15.000 | ETA 3m 24s | step 0.12s | KE 329.8122 | drift -0.00% | fluid 7.5729 | solid 322.2393
  Impulse FP iterations last/mean/max 8/8.74/9
Step   400/2000   20.0% | t 20.000 | ETA 3m 13s | step 0.12s | KE 329.8024 | drift -0.01% | fluid 7.2160 | solid 322.5864
  Impulse FP iterations last/mean/max 8/8.73/9
Step   500/2000   25.0% | t 25.000 | ETA 3m 3s | step 0.12s | KE 329.7831 | drift -0.01% | fluid 9.6886 | solid 320.0945
  Impulse FP iterations last/mean/max 9/8.76/9
Step   600/2000   30.0% | t 30.000 | ETA 2m 52s | step 0.13s | KE 329.7972 | drift -0.01% | fluid 7.0689 | solid 322.7283
  Impulse FP iterations last/mean/max 9/8.77/9
Step   700/2000   35.0% | t 35.000 | ETA 2m 40s | step 0.13s | KE 329.7774 | drift -0.01% | fluid 8.9081 | solid 320.8693
  Impulse FP iterations last/mean/max 9/8.79/9
Step   800/2000   40.0% | t 40.000 | ETA 2m 28s | step 0.13s | KE 329.7876 | drift -0.01% | fluid 9.2369 | solid 320.5507
  Impulse FP iterations last/mean/max 9/8.79/9
Step   900/2000   45.0% | t 45.000 | ETA 2m 16s | step 0.11s | KE 329.7735 | drift -0.02% | fluid 7.4112 | solid 322.3623
  Impulse FP iterations last/mean/max 8/8.79/9
Step  1000/2000   50.0% | t 50.000 | ETA 2m 4s | step 0.13s | KE 329.7779 | drift -0.01% | fluid 9.8028 | solid 319.9751
  Impulse FP iterations last/mean/max 9/8.79/9
Step  1100/2000   55.0% | t 55.000 | ETA 1m 52s | step 0.12s | KE 329.7755 | drift -0.02% | fluid 8.8176 | solid 320.9579
  Impulse FP iterations last/mean/max 8/8.78/9
Step  1200/2000   60.0% | t 60.000 | ETA 1m 39s | step 0.12s | KE 329.7745 | drift -0.02% | fluid 7.9921 | solid 321.7825
  Impulse FP iterations last/mean/max 8/8.78/9
Step  1300/2000   65.0% | t 65.000 | ETA 1m 27s | step 0.13s | KE 329.7658 | drift -0.02% | fluid 10.4659 | solid 319.2999
  Impulse FP iterations last/mean/max 9/8.78/9
Step  1400/2000   70.0% | t 70.000 | ETA 1m 14s | step 0.13s | KE 329.7712 | drift -0.02% | fluid 8.1575 | solid 321.6136
  Impulse FP iterations last/mean/max 9/8.78/9
Step  1500/2000   75.0% | t 75.000 | ETA 1m 2s | step 0.13s | KE 329.7692 | drift -0.02% | fluid 9.0666 | solid 320.7025
  Impulse FP iterations last/mean/max 9/8.79/9
Step  1600/2000   80.0% | t 80.000 | ETA 49s | step 0.13s | KE 329.7590 | drift -0.02% | fluid 10.4588 | solid 319.3002
  Impulse FP iterations last/mean/max 9/8.79/9
Step  1700/2000   85.0% | t 85.000 | ETA 37s | step 0.13s | KE 329.7627 | drift -0.02% | fluid 7.9519 | solid 321.8108
  Impulse FP iterations last/mean/max 9/8.79/9
Step  1800/2000   90.0% | t 90.000 | ETA 25s | step 0.13s | KE 329.7601 | drift -0.02% | fluid 10.1354 | solid 319.6247
  Impulse FP iterations last/mean/max 9/8.79/9
Step  1900/2000   95.0% | t 95.000 | ETA 12s | step 0.11s | KE 329.7541 | drift -0.02% | fluid 9.8964 | solid 319.8577
  Impulse FP iterations last/mean/max 8/8.79/9
Solver finished successfully - good job!
Results saved successfully.

================== Run summary ==================
  Bodies:            2
  Triangles / nodes: 256 / 516
  Timesteps:         2000  (dt = 0.05)
  Simulated time:    0 -> 100
  First-step setup:  0.228 s
  Mean time/step:    0.1243 s  (excl. first step)
  Total wall time:   4m 8s
  Impulse FP iters last/mean/max: 9 / 8.788 / 9
  Approx impulse solves/step:     8.789
  Impulse start cache hits/direct: 1999 / 1
  Impulse global drift P/H:       4.758022e-9 / 5.537125e-3
  Impulse per-body max drift P/H: 1.291814e-8 / 1.593091e-3
  CPU cores:         256 available, 8 Rayon worker thread(s)
  Started:           2026-06-24 01:33:26
  Finished:          2026-06-24 01:37:35
  Output file:       /work/e643/e643/shared/multi_ellip/studies/two_body_paper_sweeps/runs/ellipsoid_1_0p8_0p6/ellipsoid_1_0p8_0p6_rho4_E30_sep8_run03_impulse_noproj/multiple_body_complete.dat
================================================
