
================ Simulation setup ================
  Run label:         /work/e643/e643/shared/multi_ellip/studies/two_body_paper_sweeps/runs/ellipsoid_1_0p8_0p6/ellipsoid_1_0p8_0p6_rho1_E0p55_sep5_run05_impulse_noproj/
  Started:           2026-06-24 01:38:53
  Input file:        /work/e643/e643/shared/multi_ellip/studies/two_body_paper_sweeps/runs/ellipsoid_1_0p8_0p6/ellipsoid_1_0p8_0p6_rho1_E0p55_sep5_run05_impulse_noproj/input.txt
  Output file:       /work/e643/e643/shared/multi_ellip/studies/two_body_paper_sweeps/runs/ellipsoid_1_0p8_0p6/ellipsoid_1_0p8_0p6_rho1_E0p55_sep5_run05_impulse_noproj/multiple_body_complete.dat
  Bodies:            2
  Fluid density:     1
  Mesh:              ndiv 2 -> 256 triangles / 516 nodes
  Simulated time:    0 -> 100  (dt = 0.05, ~2000 steps)
  Output cadence:    every 1 step(s)
  Output rows:       ~2001
  Progress cadence:  every 100 step(s)
  CPU cores:         256 available, 8 Rayon worker thread(s)
  Strong coupling:   disabled
  Impulse scheme:    enabled
  Hamiltonian step:  disabled
  Hamiltonian midpt: disabled
  Variational step:  disabled
  Energy projection: disabled
  Projection particular metric: Euclidean
  Fluid KE gradient: disabled  (eps = 0.001, scale = 1, linear = 1, angular = 1)
  Fluid KE discrete gradient: disabled
  Impulse pair metric correction: disabled  (mode = pair discrete-gradient, cutoff = all pairs, inner/outer = 0/0, eps = 0.001, linear scale = 1, angular scale = 0)
  Impulse metric correction: disabled  (internal load constraint = disabled)
  Impulse variational defect probe: disabled
  Impulse quadratic pressure: disabled  (scale = 1)
  Added-mass stab:   disabled
  Exact BEM geometry: disabled
  Exact singular BEM: disabled
  Legacy singular SLP diagnostic: disabled
  Phi-dot blend:     0 (off)

  Solver guidance:
    - Strong coupling: use for stiff close-coupled runs; slower but more implicit.
    - Impulse scheme: use when impulse/momentum conservation or KE drift is the focus. Recommended.
    - Added-mass stab: use for higher mesh counts (ndiv > 3) to preserve stability - deprecated.
================================================
Solver starting - good luck!

Initial state:
  Body  1
    density:          1.000000
    shape axes ratio: (1.000000, 0.800000, 0.600000)
    initial KE ratio: 0.550000
    position:         (-2.500000, 0.000000, 0.000000)
    velocity:         (-1.356105, 3.117551, 3.472917)
    angular velocity: (6.214741, 0.858903, 0.343073)
    orientation:      (w=-0.163674, i=-0.400906, j=-0.757664, k=0.488294)
  Body  2
    density:          1.000000
    shape axes ratio: (1.000000, 0.800000, 0.600000)
    initial KE ratio: 0.550000
    position:         (2.500000, 0.000000, 0.000000)
    velocity:         (-1.533600, 3.525596, 3.927475)
    angular velocity: (-4.366351, 2.403788, 3.825598)
    orientation:      (w=0.533119, i=-0.742613, j=-0.292249, k=0.280892)

Preparing first step: implicit scheme, no bootstrap passes required.
First step may take longer than later steps.

First step completed in 0.265 s.

Step   100/2000    5.0% | t 5.000 | ETA 5m 4s | step 0.18s | KE 324.8376 | drift +20.85% | fluid 74.2975 | solid 250.5401
  Impulse FP iterations last/mean/max 12/11.73/12
Step   200/2000   10.0% | t 10.000 | ETA 4m 55s | step 0.17s | KE 313.2519 | drift +16.54% | fluid 85.5640 | solid 227.6878
  Impulse FP iterations last/mean/max 12/11.66/12
Step   300/2000   15.0% | t 15.000 | ETA 4m 32s | step 0.14s | KE 296.0766 | drift +10.15% | fluid 79.4969 | solid 216.5796
  Impulse FP iterations last/mean/max 11/11.60/12
Step   400/2000   20.0% | t 20.000 | ETA 4m 10s | step 0.15s | KE 292.3416 | drift +8.76% | fluid 79.2668 | solid 213.0748
  Impulse FP iterations last/mean/max 11/11.55/12
Step   500/2000   25.0% | t 25.000 | ETA 3m 53s | step 0.14s | KE 291.1003 | drift +8.30% | fluid 78.1018 | solid 212.9985
  Impulse FP iterations last/mean/max 11/11.52/12
Step   600/2000   30.0% | t 30.000 | ETA 3m 39s | step 0.16s | KE 291.1747 | drift +8.33% | fluid 76.3395 | solid 214.8353
  Impulse FP iterations last/mean/max 11/11.49/12
Step   700/2000   35.0% | t 35.000 | ETA 3m 25s | step 0.16s | KE 290.4901 | drift +8.07% | fluid 82.8030 | solid 207.6872
  Impulse FP iterations last/mean/max 11/11.48/13
Step   800/2000   40.0% | t 40.000 | ETA 3m 10s | step 0.15s | KE 289.9927 | drift +7.89% | fluid 78.9626 | solid 211.0301
  Impulse FP iterations last/mean/max 11/11.45/13
Step   900/2000   45.0% | t 45.000 | ETA 2m 55s | step 0.16s | KE 290.6068 | drift +8.11% | fluid 77.2233 | solid 213.3835
  Impulse FP iterations last/mean/max 11/11.44/13
Step  1000/2000   50.0% | t 50.000 | ETA 2m 39s | step 0.15s | KE 290.1279 | drift +7.94% | fluid 77.4016 | solid 212.7263
  Impulse FP iterations last/mean/max 11/11.43/13
Step  1100/2000   55.0% | t 55.000 | ETA 2m 24s | step 0.16s | KE 290.0972 | drift +7.92% | fluid 84.0170 | solid 206.0802
  Impulse FP iterations last/mean/max 11/11.43/13
Step  1200/2000   60.0% | t 60.000 | ETA 2m 8s | step 0.16s | KE 290.6159 | drift +8.12% | fluid 75.4142 | solid 215.2017
  Impulse FP iterations last/mean/max 11/11.42/13
Step  1300/2000   65.0% | t 65.000 | ETA 1m 52s | step 0.16s | KE 290.3045 | drift +8.00% | fluid 80.0168 | solid 210.2878
  Impulse FP iterations last/mean/max 11/11.41/13
Step  1400/2000   70.0% | t 70.000 | ETA 1m 36s | step 0.17s | KE 289.9855 | drift +7.88% | fluid 84.2023 | solid 205.7832
  Impulse FP iterations last/mean/max 11/11.40/13
Step  1500/2000   75.0% | t 75.000 | ETA 1m 20s | step 0.17s | KE 290.4634 | drift +8.06% | fluid 72.4383 | solid 218.0251
  Impulse FP iterations last/mean/max 11/11.39/13
Step  1600/2000   80.0% | t 80.000 | ETA 1m 4s | step 0.16s | KE 289.7281 | drift +7.79% | fluid 78.6123 | solid 211.1158
  Impulse FP iterations last/mean/max 11/11.39/13
Step  1700/2000   85.0% | t 85.000 | ETA 48s | step 0.16s | KE 289.8430 | drift +7.83% | fluid 79.6547 | solid 210.1882
  Impulse FP iterations last/mean/max 11/11.39/13
Step  1800/2000   90.0% | t 90.000 | ETA 32s | step 0.18s | KE 290.7408 | drift +8.16% | fluid 76.4389 | solid 214.3019
  Impulse FP iterations last/mean/max 12/11.38/13
Step  1900/2000   95.0% | t 95.000 | ETA 16s | step 0.18s | KE 289.7500 | drift +7.80% | fluid 87.0677 | solid 202.6823
  Impulse FP iterations last/mean/max 12/11.38/13
Solver finished successfully - good job!
Results saved successfully.

================== Run summary ==================
  Bodies:            2
  Triangles / nodes: 256 / 516
  Timesteps:         2000  (dt = 0.05)
  Simulated time:    0 -> 100
  First-step setup:  0.265 s
  Mean time/step:    0.1597 s  (excl. first step)
  Total wall time:   5m 19s
  Impulse FP iters last/mean/max: 12 / 11.376 / 13
  Approx impulse solves/step:     11.376
  Impulse start cache hits/direct: 1999 / 1
  Impulse global drift P/H:       7.432976e-9 / 5.705193e-2
  Impulse per-body max drift P/H: 9.516774e-9 / 6.773869e-3
  CPU cores:         256 available, 8 Rayon worker thread(s)
  Started:           2026-06-24 01:38:53
  Finished:          2026-06-24 01:44:13
  Output file:       /work/e643/e643/shared/multi_ellip/studies/two_body_paper_sweeps/runs/ellipsoid_1_0p8_0p6/ellipsoid_1_0p8_0p6_rho1_E0p55_sep5_run05_impulse_noproj/multiple_body_complete.dat
================================================
