
================ Simulation setup ================
  Run label:         /work/e643/e643/shared/multi_ellip/studies/two_body_paper_sweeps/runs/spheroid_1_0p7_0p7/spheroid_1_0p7_0p7_rho0p03_E1p5_sep11_run05_impulse_noproj/
  Started:           2026-06-24 02:24:12
  Input file:        /work/e643/e643/shared/multi_ellip/studies/two_body_paper_sweeps/runs/spheroid_1_0p7_0p7/spheroid_1_0p7_0p7_rho0p03_E1p5_sep11_run05_impulse_noproj/input.txt
  Output file:       /work/e643/e643/shared/multi_ellip/studies/two_body_paper_sweeps/runs/spheroid_1_0p7_0p7/spheroid_1_0p7_0p7_rho0p03_E1p5_sep11_run05_impulse_noproj/multiple_body_complete.dat
  Bodies:            2
  Fluid density:     1
  Mesh:              ndiv 2 -> 256 triangles / 516 nodes
  Simulated time:    0 -> 100  (dt = 0.05, ~2000 steps)
  Output cadence:    every 1 step(s)
  Output rows:       ~2001
  Progress cadence:  every 100 step(s)
  CPU cores:         256 available, 8 Rayon worker thread(s)
  Strong coupling:   disabled
  Impulse scheme:    enabled
  Hamiltonian step:  disabled
  Hamiltonian midpt: disabled
  Variational step:  disabled
  Energy projection: disabled
  Projection particular metric: Euclidean
  Fluid KE gradient: disabled  (eps = 0.001, scale = 1, linear = 1, angular = 1)
  Fluid KE discrete gradient: disabled
  Impulse pair metric correction: disabled  (mode = pair discrete-gradient, cutoff = all pairs, inner/outer = 0/0, eps = 0.001, linear scale = 1, angular scale = 0)
  Impulse metric correction: disabled  (internal load constraint = disabled)
  Impulse variational defect probe: disabled
  Impulse quadratic pressure: disabled  (scale = 1)
  Added-mass stab:   disabled
  Exact BEM geometry: disabled
  Exact singular BEM: disabled
  Legacy singular SLP diagnostic: disabled
  Phi-dot blend:     0 (off)

  Solver guidance:
    - Strong coupling: use for stiff close-coupled runs; slower but more implicit.
    - Impulse scheme: use when impulse/momentum conservation or KE drift is the focus. Recommended.
    - Added-mass stab: use for higher mesh counts (ndiv > 3) to preserve stability - deprecated.
================================================
Solver starting - good luck!

Initial state:
  Body  1
    density:          0.030000
    shape axes ratio: (1.000000, 0.700000, 0.700000)
    initial KE ratio: 1.500000
    position:         (-5.500000, 0.000000, 0.000000)
    velocity:         (1.478400, 3.112022, -0.792662)
    angular velocity: (-1.048241, -6.031494, -1.414458)
    orientation:      (w=-0.414892, i=0.766410, j=0.225951, k=0.435232)
  Body  2
    density:          0.030000
    shape axes ratio: (1.000000, 0.700000, 0.700000)
    initial KE ratio: 1.500000
    position:         (5.500000, 0.000000, 0.000000)
    velocity:         (1.289625, 2.714652, -0.691448)
    angular velocity: (5.330154, 1.480243, -2.979390)
    orientation:      (w=-0.475612, i=0.534989, j=0.032106, k=-0.697531)

Preparing first step: implicit scheme, no bootstrap passes required.
First step may take longer than later steps.

First step completed in 0.385 s.

Step   100/2000    5.0% | t 5.000 | ETA 8m 28s | step 0.24s | KE 35.8771 | drift +0.09% | fluid 32.3872 | solid 3.4899
  Impulse FP iterations last/mean/max 17/18.92/21
Step   200/2000   10.0% | t 10.000 | ETA 8m 0s | step 0.24s | KE 35.7377 | drift -0.30% | fluid 31.8772 | solid 3.8605
  Impulse FP iterations last/mean/max 19/18.92/22
Step   300/2000   15.0% | t 15.000 | ETA 7m 28s | step 0.26s | KE 35.8411 | drift -0.01% | fluid 32.5279 | solid 3.3132
  Impulse FP iterations last/mean/max 19/18.90/22
Step   400/2000   20.0% | t 20.000 | ETA 7m 0s | step 0.31s | KE 35.8064 | drift -0.11% | fluid 31.9214 | solid 3.8850
  Impulse FP iterations last/mean/max 21/18.91/22
Step   500/2000   25.0% | t 25.000 | ETA 6m 32s | step 0.27s | KE 35.8874 | drift +0.12% | fluid 32.2944 | solid 3.5930
  Impulse FP iterations last/mean/max 19/18.91/22
Step   600/2000   30.0% | t 30.000 | ETA 6m 5s | step 0.24s | KE 35.7730 | drift -0.20% | fluid 32.2794 | solid 3.4935
  Impulse FP iterations last/mean/max 18/18.91/22
Step   700/2000   35.0% | t 35.000 | ETA 5m 36s | step 0.24s | KE 35.7843 | drift -0.17% | fluid 32.2840 | solid 3.5004
  Impulse FP iterations last/mean/max 18/18.91/22
Step   800/2000   40.0% | t 40.000 | ETA 5m 5s | step 0.21s | KE 35.9156 | drift +0.20% | fluid 32.2760 | solid 3.6396
  Impulse FP iterations last/mean/max 19/18.91/22
Step   900/2000   45.0% | t 45.000 | ETA 4m 36s | step 0.28s | KE 35.8190 | drift -0.07% | fluid 31.9475 | solid 3.8715
  Impulse FP iterations last/mean/max 22/18.92/22
Step  1000/2000   50.0% | t 50.000 | ETA 4m 10s | step 0.23s | KE 35.8070 | drift -0.11% | fluid 32.4934 | solid 3.3136
  Impulse FP iterations last/mean/max 19/18.93/22
Step  1100/2000   55.0% | t 55.000 | ETA 3m 45s | step 0.29s | KE 35.7317 | drift -0.32% | fluid 31.9584 | solid 3.7734
  Impulse FP iterations last/mean/max 20/18.93/22
Step  1200/2000   60.0% | t 60.000 | ETA 3m 21s | step 0.27s | KE 35.8930 | drift +0.13% | fluid 32.3543 | solid 3.5388
  Impulse FP iterations last/mean/max 19/18.93/22
Step  1300/2000   65.0% | t 65.000 | ETA 2m 56s | step 0.28s | KE 35.8147 | drift -0.08% | fluid 32.1301 | solid 3.6846
  Impulse FP iterations last/mean/max 21/18.94/22
Step  1400/2000   70.0% | t 70.000 | ETA 2m 31s | step 0.25s | KE 35.8470 | drift +0.01% | fluid 32.3947 | solid 3.4523
  Impulse FP iterations last/mean/max 18/18.94/22
Step  1500/2000   75.0% | t 75.000 | ETA 2m 6s | step 0.27s | KE 35.8471 | drift +0.01% | fluid 32.1657 | solid 3.6814
  Impulse FP iterations last/mean/max 19/18.94/22
Step  1600/2000   80.0% | t 80.000 | ETA 1m 41s | step 0.27s | KE 35.7833 | drift -0.17% | fluid 32.0595 | solid 3.7238
  Impulse FP iterations last/mean/max 20/18.94/22
Step  1700/2000   85.0% | t 85.000 | ETA 1m 16s | step 0.24s | KE 35.8054 | drift -0.11% | fluid 32.4689 | solid 3.3365
  Impulse FP iterations last/mean/max 18/18.93/22
Step  1800/2000   90.0% | t 90.000 | ETA 50s | step 0.27s | KE 35.7926 | drift -0.15% | fluid 31.9451 | solid 3.8475
  Impulse FP iterations last/mean/max 20/18.93/22
Step  1900/2000   95.0% | t 95.000 | ETA 25s | step 0.24s | KE 35.9467 | drift +0.28% | fluid 32.4133 | solid 3.5334
  Impulse FP iterations last/mean/max 18/18.93/22
Solver finished successfully - good job!
Results saved successfully.

================== Run summary ==================
  Bodies:            2
  Triangles / nodes: 256 / 516
  Timesteps:         2000  (dt = 0.05)
  Simulated time:    0 -> 100
  First-step setup:  0.385 s
  Mean time/step:    0.2542 s  (excl. first step)
  Total wall time:   8m 28s
  Impulse FP iters last/mean/max: 19 / 18.922 / 22
  Approx impulse solves/step:     18.922
  Impulse start cache hits/direct: 1999 / 1
  Impulse global drift P/H:       4.501121e-8 / 3.994004e-4
  Impulse per-body max drift P/H: 6.608171e-8 / 2.159889e-4
  CPU cores:         256 available, 8 Rayon worker thread(s)
  Started:           2026-06-24 02:24:12
  Finished:          2026-06-24 02:32:40
  Output file:       /work/e643/e643/shared/multi_ellip/studies/two_body_paper_sweeps/runs/spheroid_1_0p7_0p7/spheroid_1_0p7_0p7_rho0p03_E1p5_sep11_run05_impulse_noproj/multiple_body_complete.dat
================================================
