
================ Simulation setup ================
  Run label:         /work/e643/e643/shared/multi_ellip/studies/departing_sphericity_sweep/runs/triaxial/heterogeneous_sphere/triaxial_heterogeneous_sphere_eps0p0001_rho1_E0p5_sep8_run10_impulse_noproj/
  Started:           2026-06-24 02:37:14
  Input file:        /work/e643/e643/shared/multi_ellip/studies/departing_sphericity_sweep/runs/triaxial/heterogeneous_sphere/triaxial_heterogeneous_sphere_eps0p0001_rho1_E0p5_sep8_run10_impulse_noproj/input.txt
  Output file:       /work/e643/e643/shared/multi_ellip/studies/departing_sphericity_sweep/runs/triaxial/heterogeneous_sphere/triaxial_heterogeneous_sphere_eps0p0001_rho1_E0p5_sep8_run10_impulse_noproj/multiple_body_complete.dat
  Bodies:            2
  Fluid density:     1
  Mesh:              ndiv 2 -> 256 triangles / 516 nodes
  Simulated time:    0 -> 100  (dt = 0.05, ~2000 steps)
  Output cadence:    every 1 step(s)
  Output rows:       ~2001
  Progress cadence:  every 100 step(s)
  CPU cores:         256 available, 8 Rayon worker thread(s)
  Strong coupling:   disabled
  Impulse scheme:    enabled
  Hamiltonian step:  disabled
  Hamiltonian midpt: disabled
  Variational step:  disabled
  Energy projection: disabled
  Projection particular metric: Euclidean
  Fluid KE gradient: disabled  (eps = 0.001, scale = 1, linear = 1, angular = 1)
  Fluid KE discrete gradient: disabled
  Impulse pair metric correction: disabled  (mode = pair discrete-gradient, cutoff = all pairs, inner/outer = 0/0, eps = 0.001, linear scale = 1, angular scale = 0)
  Impulse metric correction: disabled  (internal load constraint = disabled)
  Impulse variational defect probe: disabled
  Impulse quadratic pressure: disabled  (scale = 1)
  Added-mass stab:   disabled
  Exact BEM geometry: disabled
  Exact singular BEM: disabled
  Legacy singular SLP diagnostic: disabled
  Phi-dot blend:     0 (off)

  Solver guidance:
    - Strong coupling: use for stiff close-coupled runs; slower but more implicit.
    - Impulse scheme: use when impulse/momentum conservation or KE drift is the focus. Recommended.
    - Added-mass stab: use for higher mesh counts (ndiv > 3) to preserve stability - deprecated.
================================================
Solver starting - good luck!

Initial state:
  Body  1
    density:          1.000000
    shape axes ratio: (1.000000, 0.999900, 0.999800)
    initial KE ratio: 0.500000
    position:         (-4.000000, 0.000000, 0.000000)
    velocity:         (-2.916620, -2.239643, -4.249837)
    angular velocity: (-3.292062, -2.152286, -4.899838)
    orientation:      (w=0.272710, i=0.033144, j=-0.854837, k=-0.440208)
  Body  2
    density:          1.000000
    shape axes ratio: (1.000000, 1.000000, 1.000000)
    initial KE ratio: 0.500000
    position:         (4.000000, 0.000000, 0.000000)
    velocity:         (-2.916571, -2.239606, -4.249766)
    angular velocity: (-4.770944, -3.601491, 1.935400)
    orientation:      (w=-0.292932, i=0.817174, j=-0.487962, k=-0.091155)

Preparing first step: implicit scheme, no bootstrap passes required.
First step may take longer than later steps.

First step completed in 0.260 s.

Step   100/2000    5.0% | t 5.000 | ETA 2m 18s | step 0.07s | KE 266.7176 | drift -1.54% | fluid 72.4364 | solid 194.2813
  Impulse FP iterations last/mean/max 5/5.17/6
Step   200/2000   10.0% | t 10.000 | ETA 2m 15s | step 0.07s | KE 265.0896 | drift -2.14% | fluid 72.4364 | solid 192.6532
  Impulse FP iterations last/mean/max 5/5.34/6
Step   300/2000   15.0% | t 15.000 | ETA 2m 9s | step 0.09s | KE 265.9952 | drift -1.80% | fluid 72.4372 | solid 193.5580
  Impulse FP iterations last/mean/max 6/5.41/6
Step   400/2000   20.0% | t 20.000 | ETA 2m 3s | step 0.08s | KE 269.4348 | drift -0.53% | fluid 72.4363 | solid 196.9985
  Impulse FP iterations last/mean/max 6/5.50/6
Step   500/2000   25.0% | t 25.000 | ETA 1m 57s | step 0.08s | KE 275.4081 | drift +1.67% | fluid 72.4363 | solid 202.9718
  Impulse FP iterations last/mean/max 6/5.59/6
Step   600/2000   30.0% | t 30.000 | ETA 1m 51s | step 0.08s | KE 283.9153 | drift +4.81% | fluid 72.4354 | solid 211.4800
  Impulse FP iterations last/mean/max 6/5.66/6
Step   700/2000   35.0% | t 35.000 | ETA 1m 44s | step 0.09s | KE 294.9561 | drift +8.89% | fluid 72.4361 | solid 222.5200
  Impulse FP iterations last/mean/max 6/5.71/6
Step   800/2000   40.0% | t 40.000 | ETA 1m 36s | step 0.08s | KE 308.5304 | drift +13.90% | fluid 72.4365 | solid 236.0939
  Impulse FP iterations last/mean/max 6/5.75/7
Step   900/2000   45.0% | t 45.000 | ETA 1m 29s | step 0.09s | KE 324.6383 | drift +19.85% | fluid 72.4368 | solid 252.2016
  Impulse FP iterations last/mean/max 6/5.79/7
Step  1000/2000   50.0% | t 50.000 | ETA 1m 21s | step 0.09s | KE 343.2797 | drift +26.73% | fluid 72.4381 | solid 270.8416
  Impulse FP iterations last/mean/max 7/5.84/7
Step  1100/2000   55.0% | t 55.000 | ETA 1m 13s | step 0.07s | KE 364.4547 | drift +34.55% | fluid 72.4375 | solid 292.0172
  Impulse FP iterations last/mean/max 6/5.88/7
Step  1200/2000   60.0% | t 60.000 | ETA 1m 5s | step 0.07s | KE 388.1637 | drift +43.30% | fluid 72.4355 | solid 315.7282
  Impulse FP iterations last/mean/max 6/5.92/7
Step  1300/2000   65.0% | t 65.000 | ETA 57s | step 0.09s | KE 414.4038 | drift +52.98% | fluid 72.4381 | solid 341.9657
  Impulse FP iterations last/mean/max 7/5.97/7
Step  1400/2000   70.0% | t 70.000 | ETA 49s | step 0.09s | KE 443.1793 | drift +63.61% | fluid 72.4359 | solid 370.7434
  Impulse FP iterations last/mean/max 7/6.02/7
Step  1500/2000   75.0% | t 75.000 | ETA 40s | step 0.09s | KE 474.4870 | drift +75.17% | fluid 72.4346 | solid 402.0524
  Impulse FP iterations last/mean/max 7/6.06/7
Step  1600/2000   80.0% | t 80.000 | ETA 32s | step 0.09s | KE 508.3259 | drift +87.66% | fluid 72.4357 | solid 435.8903
  Impulse FP iterations last/mean/max 7/6.10/7
Step  1700/2000   85.0% | t 85.000 | ETA 24s | step 0.09s | KE 544.6977 | drift +101.09% | fluid 72.4370 | solid 472.2607
  Impulse FP iterations last/mean/max 7/6.14/7
Step  1800/2000   90.0% | t 90.000 | ETA 16s | step 0.09s | KE 583.6016 | drift +115.45% | fluid 72.4371 | solid 511.1645
  Impulse FP iterations last/mean/max 7/6.17/7
Step  1900/2000   95.0% | t 95.000 | ETA 8s | step 0.09s | KE 625.0379 | drift +130.74% | fluid 72.4372 | solid 552.6007
  Impulse FP iterations last/mean/max 7/6.21/7
Solver finished successfully - good job!
Results saved successfully.

================== Run summary ==================
  Bodies:            2
  Triangles / nodes: 256 / 516
  Timesteps:         2000  (dt = 0.05)
  Simulated time:    0 -> 100
  First-step setup:  0.260 s
  Mean time/step:    0.0831 s  (excl. first step)
  Total wall time:   2m 46s
  Impulse FP iters last/mean/max: 7 / 6.244 / 7
  Approx impulse solves/step:     6.244
  Impulse start cache hits/direct: 1999 / 1
  Impulse global drift P/H:       2.200676e-9 / 5.033067e-2
  Impulse per-body max drift P/H: 6.870579e-9 / 5.153550e-3
  CPU cores:         256 available, 8 Rayon worker thread(s)
  Started:           2026-06-24 02:37:14
  Finished:          2026-06-24 02:40:00
  Output file:       /work/e643/e643/shared/multi_ellip/studies/departing_sphericity_sweep/runs/triaxial/heterogeneous_sphere/triaxial_heterogeneous_sphere_eps0p0001_rho1_E0p5_sep8_run10_impulse_noproj/multiple_body_complete.dat
================================================
