
================ Simulation setup ================
  Run label:         /work/e643/e643/shared/multi_ellip/studies/departing_sphericity_sweep/runs/triaxial/heterogeneous_sphere/triaxial_heterogeneous_sphere_eps0_rho1_E0p5_sep8_run04_impulse_noproj/
  Started:           2026-06-24 02:37:13
  Input file:        /work/e643/e643/shared/multi_ellip/studies/departing_sphericity_sweep/runs/triaxial/heterogeneous_sphere/triaxial_heterogeneous_sphere_eps0_rho1_E0p5_sep8_run04_impulse_noproj/input.txt
  Output file:       /work/e643/e643/shared/multi_ellip/studies/departing_sphericity_sweep/runs/triaxial/heterogeneous_sphere/triaxial_heterogeneous_sphere_eps0_rho1_E0p5_sep8_run04_impulse_noproj/multiple_body_complete.dat
  Bodies:            2
  Fluid density:     1
  Mesh:              ndiv 2 -> 256 triangles / 516 nodes
  Simulated time:    0 -> 100  (dt = 0.05, ~2000 steps)
  Output cadence:    every 1 step(s)
  Output rows:       ~2001
  Progress cadence:  every 100 step(s)
  CPU cores:         256 available, 8 Rayon worker thread(s)
  Strong coupling:   disabled
  Impulse scheme:    enabled
  Hamiltonian step:  disabled
  Hamiltonian midpt: disabled
  Variational step:  disabled
  Energy projection: disabled
  Projection particular metric: Euclidean
  Fluid KE gradient: disabled  (eps = 0.001, scale = 1, linear = 1, angular = 1)
  Fluid KE discrete gradient: disabled
  Impulse pair metric correction: disabled  (mode = pair discrete-gradient, cutoff = all pairs, inner/outer = 0/0, eps = 0.001, linear scale = 1, angular scale = 0)
  Impulse metric correction: disabled  (internal load constraint = disabled)
  Impulse variational defect probe: disabled
  Impulse quadratic pressure: disabled  (scale = 1)
  Added-mass stab:   disabled
  Exact BEM geometry: disabled
  Exact singular BEM: disabled
  Legacy singular SLP diagnostic: disabled
  Phi-dot blend:     0 (off)

  Solver guidance:
    - Strong coupling: use for stiff close-coupled runs; slower but more implicit.
    - Impulse scheme: use when impulse/momentum conservation or KE drift is the focus. Recommended.
    - Added-mass stab: use for higher mesh counts (ndiv > 3) to preserve stability - deprecated.
================================================
Solver starting - good luck!

Initial state:
  Body  1
    density:          1.000000
    shape axes ratio: (1.000000, 1.000000, 1.000000)
    initial KE ratio: 0.500000
    position:         (-4.000000, 0.000000, 0.000000)
    velocity:         (1.590631, 3.719343, -3.901168)
    angular velocity: (5.742042, 1.884617, -1.719182)
    orientation:      (w=-0.807009, i=-0.294520, j=0.348191, k=-0.375177)
  Body  2
    density:          1.000000
    shape axes ratio: (1.000000, 1.000000, 1.000000)
    initial KE ratio: 0.500000
    position:         (4.000000, 0.000000, 0.000000)
    velocity:         (1.590631, 3.719343, -3.901168)
    angular velocity: (-1.080224, 2.603513, -5.615448)
    orientation:      (w=-0.495590, i=-0.303570, j=0.564596, k=0.586060)

Preparing first step: implicit scheme, no bootstrap passes required.
First step may take longer than later steps.

First step completed in 0.207 s.

Step   100/2000    5.0% | t 5.000 | ETA 2m 9s | step 0.07s | KE 273.0982 | drift +0.77% | fluid 72.5599 | solid 200.5383
  Impulse FP iterations last/mean/max 6/5.60/6
Step   200/2000   10.0% | t 10.000 | ETA 2m 2s | step 0.07s | KE 276.1433 | drift +1.90% | fluid 72.5599 | solid 203.5835
  Impulse FP iterations last/mean/max 6/5.61/6
Step   300/2000   15.0% | t 15.000 | ETA 1m 59s | step 0.07s | KE 280.1355 | drift +3.37% | fluid 72.5599 | solid 207.5756
  Impulse FP iterations last/mean/max 5/5.58/6
Step   400/2000   20.0% | t 20.000 | ETA 1m 55s | step 0.07s | KE 285.0745 | drift +5.19% | fluid 72.5599 | solid 212.5146
  Impulse FP iterations last/mean/max 5/5.55/6
Step   500/2000   25.0% | t 25.000 | ETA 1m 48s | step 0.07s | KE 290.9606 | drift +7.37% | fluid 72.5599 | solid 218.4007
  Impulse FP iterations last/mean/max 5/5.51/6
Step   600/2000   30.0% | t 30.000 | ETA 1m 42s | step 0.09s | KE 297.7935 | drift +9.89% | fluid 72.5599 | solid 225.2336
  Impulse FP iterations last/mean/max 6/5.48/6
Step   700/2000   35.0% | t 35.000 | ETA 1m 34s | step 0.07s | KE 305.5732 | drift +12.76% | fluid 72.5599 | solid 233.0133
  Impulse FP iterations last/mean/max 5/5.45/6
Step   800/2000   40.0% | t 40.000 | ETA 1m 27s | step 0.07s | KE 314.2999 | drift +15.98% | fluid 72.5599 | solid 241.7400
  Impulse FP iterations last/mean/max 5/5.42/6
Step   900/2000   45.0% | t 45.000 | ETA 1m 20s | step 0.08s | KE 323.9734 | drift +19.55% | fluid 72.5599 | solid 251.4135
  Impulse FP iterations last/mean/max 6/5.41/6
Step  1000/2000   50.0% | t 50.000 | ETA 1m 13s | step 0.07s | KE 334.5937 | drift +23.47% | fluid 72.5599 | solid 262.0337
  Impulse FP iterations last/mean/max 5/5.39/6
Step  1100/2000   55.0% | t 55.000 | ETA 1m 5s | step 0.07s | KE 346.1608 | drift +27.73% | fluid 72.5599 | solid 273.6009
  Impulse FP iterations last/mean/max 5/5.38/6
Step  1200/2000   60.0% | t 60.000 | ETA 58s | step 0.07s | KE 358.6747 | drift +32.35% | fluid 72.5599 | solid 286.1148
  Impulse FP iterations last/mean/max 5/5.36/6
Step  1300/2000   65.0% | t 65.000 | ETA 51s | step 0.07s | KE 372.1355 | drift +37.32% | fluid 72.5599 | solid 299.5756
  Impulse FP iterations last/mean/max 5/5.34/6
Step  1400/2000   70.0% | t 70.000 | ETA 43s | step 0.07s | KE 386.5431 | drift +42.64% | fluid 72.5599 | solid 313.9831
  Impulse FP iterations last/mean/max 5/5.32/6
Step  1500/2000   75.0% | t 75.000 | ETA 36s | step 0.06s | KE 401.8975 | drift +48.30% | fluid 72.5599 | solid 329.3376
  Impulse FP iterations last/mean/max 5/5.31/6
Step  1600/2000   80.0% | t 80.000 | ETA 29s | step 0.07s | KE 418.1985 | drift +54.32% | fluid 72.5600 | solid 345.6385
  Impulse FP iterations last/mean/max 5/5.30/6
Step  1700/2000   85.0% | t 85.000 | ETA 21s | step 0.07s | KE 435.4465 | drift +60.68% | fluid 72.5600 | solid 362.8865
  Impulse FP iterations last/mean/max 5/5.28/6
Step  1800/2000   90.0% | t 90.000 | ETA 14s | step 0.06s | KE 453.6411 | drift +67.40% | fluid 72.5600 | solid 381.0811
  Impulse FP iterations last/mean/max 5/5.27/6
Step  1900/2000   95.0% | t 95.000 | ETA 7s | step 0.07s | KE 472.7826 | drift +74.46% | fluid 72.5600 | solid 400.2226
  Impulse FP iterations last/mean/max 5/5.26/6
Solver finished successfully - good job!
Results saved successfully.

================== Run summary ==================
  Bodies:            2
  Triangles / nodes: 256 / 516
  Timesteps:         2000  (dt = 0.05)
  Simulated time:    0 -> 100
  First-step setup:  0.207 s
  Mean time/step:    0.0724 s  (excl. first step)
  Total wall time:   2m 24s
  Impulse FP iters last/mean/max: 5 / 5.253 / 6
  Approx impulse solves/step:     5.253
  Impulse start cache hits/direct: 1999 / 1
  Impulse global drift P/H:       3.681709e-9 / 3.299800e-2
  Impulse per-body max drift P/H: 3.986879e-9 / 2.313277e-3
  CPU cores:         256 available, 8 Rayon worker thread(s)
  Started:           2026-06-24 02:37:13
  Finished:          2026-06-24 02:39:38
  Output file:       /work/e643/e643/shared/multi_ellip/studies/departing_sphericity_sweep/runs/triaxial/heterogeneous_sphere/triaxial_heterogeneous_sphere_eps0_rho1_E0p5_sep8_run04_impulse_noproj/multiple_body_complete.dat
================================================
