
================ Simulation setup ================
  Run label:         /work/e643/e643/shared/multi_ellip/studies/departing_sphericity_sweep/runs/triaxial/homogeneous/triaxial_homogeneous_eps0p3_rho1_E0p5_sep8_run06_impulse_noproj/
  Started:           2026-06-24 02:30:21
  Input file:        /work/e643/e643/shared/multi_ellip/studies/departing_sphericity_sweep/runs/triaxial/homogeneous/triaxial_homogeneous_eps0p3_rho1_E0p5_sep8_run06_impulse_noproj/input.txt
  Output file:       /work/e643/e643/shared/multi_ellip/studies/departing_sphericity_sweep/runs/triaxial/homogeneous/triaxial_homogeneous_eps0p3_rho1_E0p5_sep8_run06_impulse_noproj/multiple_body_complete.dat
  Bodies:            2
  Fluid density:     1
  Mesh:              ndiv 2 -> 256 triangles / 516 nodes
  Simulated time:    0 -> 100  (dt = 0.05, ~2000 steps)
  Output cadence:    every 1 step(s)
  Output rows:       ~2001
  Progress cadence:  every 100 step(s)
  CPU cores:         256 available, 8 Rayon worker thread(s)
  Strong coupling:   disabled
  Impulse scheme:    enabled
  Hamiltonian step:  disabled
  Hamiltonian midpt: disabled
  Variational step:  disabled
  Energy projection: disabled
  Projection particular metric: Euclidean
  Fluid KE gradient: disabled  (eps = 0.001, scale = 1, linear = 1, angular = 1)
  Fluid KE discrete gradient: disabled
  Impulse pair metric correction: disabled  (mode = pair discrete-gradient, cutoff = all pairs, inner/outer = 0/0, eps = 0.001, linear scale = 1, angular scale = 0)
  Impulse metric correction: disabled  (internal load constraint = disabled)
  Impulse variational defect probe: disabled
  Impulse quadratic pressure: disabled  (scale = 1)
  Added-mass stab:   disabled
  Exact BEM geometry: disabled
  Exact singular BEM: disabled
  Legacy singular SLP diagnostic: disabled
  Phi-dot blend:     0 (off)

  Solver guidance:
    - Strong coupling: use for stiff close-coupled runs; slower but more implicit.
    - Impulse scheme: use when impulse/momentum conservation or KE drift is the focus. Recommended.
    - Added-mass stab: use for higher mesh counts (ndiv > 3) to preserve stability - deprecated.
================================================
Solver starting - good luck!

Initial state:
  Body  1
    density:          1.000000
    shape axes ratio: (1.000000, 0.769231, 0.591716)
    initial KE ratio: 0.500000
    position:         (-4.000000, 0.000000, 0.000000)
    velocity:         (-4.960444, 2.711712, 2.708532)
    angular velocity: (-1.091213, -4.035902, 4.690327)
    orientation:      (w=-0.486894, i=-0.768934, j=-0.126414, k=0.394582)
  Body  2
    density:          1.000000
    shape axes ratio: (1.000000, 0.769231, 0.591716)
    initial KE ratio: 0.500000
    position:         (4.000000, 0.000000, 0.000000)
    velocity:         (-5.148088, 2.814291, 2.810990)
    angular velocity: (-0.389381, 0.731787, -6.228265)
    orientation:      (w=0.571671, i=0.262340, j=0.261938, k=0.731955)

Preparing first step: implicit scheme, no bootstrap passes required.
First step may take longer than later steps.

First step completed in 0.351 s.

Step   100/2000    5.0% | t 5.000 | ETA 5m 17s | step 0.18s | KE 344.0453 | drift +4.83% | fluid 83.7595 | solid 260.2859
  Impulse FP iterations last/mean/max 12/11.59/12
Step   200/2000   10.0% | t 10.000 | ETA 5m 5s | step 0.18s | KE 393.3055 | drift +19.84% | fluid 82.9190 | solid 310.3865
  Impulse FP iterations last/mean/max 12/11.68/13
Step   300/2000   15.0% | t 15.000 | ETA 4m 49s | step 0.17s | KE 394.5981 | drift +20.23% | fluid 96.6888 | solid 297.9092
  Impulse FP iterations last/mean/max 12/11.73/13
Step   400/2000   20.0% | t 20.000 | ETA 4m 32s | step 0.17s | KE 399.7792 | drift +21.81% | fluid 90.1395 | solid 309.6397
  Impulse FP iterations last/mean/max 12/11.71/13
Step   500/2000   25.0% | t 25.000 | ETA 4m 14s | step 0.18s | KE 402.8899 | drift +22.76% | fluid 97.3345 | solid 305.5554
  Impulse FP iterations last/mean/max 13/11.70/13
Step   600/2000   30.0% | t 30.000 | ETA 3m 57s | step 0.16s | KE 406.2657 | drift +23.79% | fluid 77.5711 | solid 328.6946
  Impulse FP iterations last/mean/max 11/11.71/13
Step   700/2000   35.0% | t 35.000 | ETA 3m 40s | step 0.16s | KE 406.7518 | drift +23.94% | fluid 83.8547 | solid 322.8970
  Impulse FP iterations last/mean/max 11/11.68/13
Step   800/2000   40.0% | t 40.000 | ETA 3m 22s | step 0.17s | KE 404.3596 | drift +23.21% | fluid 102.3519 | solid 302.0077
  Impulse FP iterations last/mean/max 12/11.67/13
Step   900/2000   45.0% | t 45.000 | ETA 3m 5s | step 0.16s | KE 405.1723 | drift +23.46% | fluid 86.6661 | solid 318.5062
  Impulse FP iterations last/mean/max 11/11.67/13
Step  1000/2000   50.0% | t 50.000 | ETA 2m 48s | step 0.18s | KE 405.2033 | drift +23.47% | fluid 89.1059 | solid 316.0974
  Impulse FP iterations last/mean/max 12/11.67/13
Step  1100/2000   55.0% | t 55.000 | ETA 2m 31s | step 0.17s | KE 404.2821 | drift +23.19% | fluid 101.1498 | solid 303.1324
  Impulse FP iterations last/mean/max 12/11.68/13
Step  1200/2000   60.0% | t 60.000 | ETA 2m 15s | step 0.16s | KE 405.8702 | drift +23.67% | fluid 84.8354 | solid 321.0348
  Impulse FP iterations last/mean/max 11/11.67/13
Step  1300/2000   65.0% | t 65.000 | ETA 1m 58s | step 0.17s | KE 407.0661 | drift +24.03% | fluid 80.8267 | solid 326.2393
  Impulse FP iterations last/mean/max 12/11.66/13
Step  1400/2000   70.0% | t 70.000 | ETA 1m 40s | step 0.15s | KE 405.6248 | drift +23.59% | fluid 94.1753 | solid 311.4494
  Impulse FP iterations last/mean/max 12/11.66/13
Step  1500/2000   75.0% | t 75.000 | ETA 1m 22s | step 0.12s | KE 405.4906 | drift +23.55% | fluid 92.0267 | solid 313.4639
  Impulse FP iterations last/mean/max 11/11.66/13
Step  1600/2000   80.0% | t 80.000 | ETA 1m 5s | step 0.12s | KE 405.2821 | drift +23.49% | fluid 91.8962 | solid 313.3859
  Impulse FP iterations last/mean/max 12/11.66/13
Step  1700/2000   85.0% | t 85.000 | ETA 48s | step 0.12s | KE 404.1022 | drift +23.13% | fluid 104.3939 | solid 299.7083
  Impulse FP iterations last/mean/max 12/11.66/13
Step  1800/2000   90.0% | t 90.000 | ETA 31s | step 0.12s | KE 403.9722 | drift +23.09% | fluid 97.6212 | solid 306.3510
  Impulse FP iterations last/mean/max 12/11.66/13
Step  1900/2000   95.0% | t 95.000 | ETA 15s | step 0.11s | KE 405.6176 | drift +23.59% | fluid 84.3431 | solid 321.2745
  Impulse FP iterations last/mean/max 11/11.66/13
Solver finished successfully - good job!
Results saved successfully.

================== Run summary ==================
  Bodies:            2
  Triangles / nodes: 256 / 516
  Timesteps:         2000  (dt = 0.05)
  Simulated time:    0 -> 100
  First-step setup:  0.351 s
  Mean time/step:    0.1534 s  (excl. first step)
  Total wall time:   5m 6s
  Impulse FP iters last/mean/max: 11 / 11.656 / 13
  Approx impulse solves/step:     11.657
  Impulse start cache hits/direct: 1999 / 1
  Impulse global drift P/H:       2.685417e-9 / 5.274837e-2
  Impulse per-body max drift P/H: 3.633830e-9 / 1.111263e-2
  CPU cores:         256 available, 8 Rayon worker thread(s)
  Started:           2026-06-24 02:30:21
  Finished:          2026-06-24 02:35:29
  Output file:       /work/e643/e643/shared/multi_ellip/studies/departing_sphericity_sweep/runs/triaxial/homogeneous/triaxial_homogeneous_eps0p3_rho1_E0p5_sep8_run06_impulse_noproj/multiple_body_complete.dat
================================================
