
================ Simulation setup ================
  Run label:         /work/e643/e643/shared/multi_ellip/studies/two_body_paper_sweeps/runs/spheroid_1_0p7_0p7/spheroid_1_0p7_0p7_rho1_E11_sep8_run01_impulse_noproj/
  Started:           2026-06-22 19:39:26
  Input file:        /work/e643/e643/shared/multi_ellip/studies/two_body_paper_sweeps/runs/spheroid_1_0p7_0p7/spheroid_1_0p7_0p7_rho1_E11_sep8_run01_impulse_noproj/input.txt
  Output file:       /work/e643/e643/shared/multi_ellip/studies/two_body_paper_sweeps/runs/spheroid_1_0p7_0p7/spheroid_1_0p7_0p7_rho1_E11_sep8_run01_impulse_noproj/multiple_body_complete.dat
  Bodies:            2
  Fluid density:     1
  Mesh:              ndiv 2 -> 256 triangles / 516 nodes
  Simulated time:    0 -> 100  (dt = 0.05, ~2000 steps)
  Output cadence:    every 1 step(s)
  Output rows:       ~2001
  Progress cadence:  every 100 step(s)
  CPU cores:         256 available, 8 Rayon worker thread(s)
  Strong coupling:   disabled
  Impulse scheme:    enabled
  Hamiltonian step:  disabled
  Hamiltonian midpt: disabled
  Variational step:  disabled
  Energy projection: disabled
  Projection particular metric: Euclidean
  Fluid KE gradient: disabled  (eps = 0.001, scale = 1, linear = 1, angular = 1)
  Fluid KE discrete gradient: disabled
  Impulse pair metric correction: disabled  (mode = pair discrete-gradient, cutoff = all pairs, inner/outer = 0/0, eps = 0.001, linear scale = 1, angular scale = 0)
  Impulse metric correction: disabled  (internal load constraint = disabled)
  Impulse variational defect probe: disabled
  Impulse quadratic pressure: disabled  (scale = 1)
  Added-mass stab:   disabled
  Exact BEM geometry: disabled
  Exact singular BEM: disabled
  Legacy singular SLP diagnostic: disabled
  Phi-dot blend:     0 (off)

  Solver guidance:
    - Strong coupling: use for stiff close-coupled runs; slower but more implicit.
    - Impulse scheme: use when impulse/momentum conservation or KE drift is the focus. Recommended.
    - Added-mass stab: use for higher mesh counts (ndiv > 3) to preserve stability - deprecated.
================================================
Solver starting - good luck!

Initial state:
  Body  1
    density:          1.000000
    shape axes ratio: (1.000000, 0.700000, 0.700000)
    initial KE ratio: 11.000000
    position:         (-4.000000, 0.000000, 0.000000)
    velocity:         (0.552381, -1.154697, 0.271980)
    angular velocity: (-0.747306, 5.672334, 2.597032)
    orientation:      (w=0.447214, i=0.894427, j=0.000000, k=0.000000)
  Body  2
    density:          1.000000
    shape axes ratio: (1.000000, 0.700000, 0.700000)
    initial KE ratio: 11.000000
    position:         (4.000000, 0.000000, 0.000000)
    velocity:         (0.553020, -1.156034, 0.272295)
    angular velocity: (0.540962, 3.921749, -4.879105)
    orientation:      (w=0.707107, i=0.000000, j=0.707107, k=0.000000)

Preparing first step: implicit scheme, no bootstrap passes required.
First step may take longer than later steps.

First step completed in 0.252 s.

Step   100/2000    5.0% | t 5.000 | ETA 4m 5s | step 0.14s | KE 87.2627 | drift +0.15% | fluid 9.0917 | solid 78.1710
  Impulse FP iterations last/mean/max 10/9.16/10
Step   200/2000   10.0% | t 10.000 | ETA 3m 55s | step 0.15s | KE 87.3563 | drift +0.26% | fluid 9.1310 | solid 78.2253
  Impulse FP iterations last/mean/max 10/9.19/10
Step   300/2000   15.0% | t 15.000 | ETA 3m 43s | step 0.15s | KE 87.4026 | drift +0.31% | fluid 8.9802 | solid 78.4224
  Impulse FP iterations last/mean/max 10/9.21/10
Step   400/2000   20.0% | t 20.000 | ETA 3m 30s | step 0.12s | KE 87.4145 | drift +0.32% | fluid 8.6403 | solid 78.7742
  Impulse FP iterations last/mean/max 9/9.23/10
Step   500/2000   25.0% | t 25.000 | ETA 3m 17s | step 0.12s | KE 87.3823 | drift +0.29% | fluid 8.6160 | solid 78.7663
  Impulse FP iterations last/mean/max 9/9.23/10
Step   600/2000   30.0% | t 30.000 | ETA 3m 4s | step 0.13s | KE 87.3210 | drift +0.22% | fluid 8.8828 | solid 78.4381
  Impulse FP iterations last/mean/max 9/9.23/10
Step   700/2000   35.0% | t 35.000 | ETA 2m 50s | step 0.13s | KE 87.2611 | drift +0.15% | fluid 8.9625 | solid 78.2987
  Impulse FP iterations last/mean/max 9/9.21/10
Step   800/2000   40.0% | t 40.000 | ETA 2m 37s | step 0.12s | KE 87.1877 | drift +0.06% | fluid 8.9663 | solid 78.2214
  Impulse FP iterations last/mean/max 9/9.20/10
Step   900/2000   45.0% | t 45.000 | ETA 2m 23s | step 0.12s | KE 87.1077 | drift -0.03% | fluid 8.8622 | solid 78.2454
  Impulse FP iterations last/mean/max 9/9.18/10
Step  1000/2000   50.0% | t 50.000 | ETA 2m 9s | step 0.13s | KE 87.0462 | drift -0.10% | fluid 8.5728 | solid 78.4734
  Impulse FP iterations last/mean/max 10/9.16/10
Step  1100/2000   55.0% | t 55.000 | ETA 1m 56s | step 0.13s | KE 86.9809 | drift -0.17% | fluid 8.6707 | solid 78.3102
  Impulse FP iterations last/mean/max 9/9.15/10
Step  1200/2000   60.0% | t 60.000 | ETA 1m 43s | step 0.13s | KE 86.9200 | drift -0.24% | fluid 9.0403 | solid 77.8797
  Impulse FP iterations last/mean/max 9/9.13/10
Step  1300/2000   65.0% | t 65.000 | ETA 1m 30s | step 0.12s | KE 86.8875 | drift -0.28% | fluid 9.1230 | solid 77.7645
  Impulse FP iterations last/mean/max 8/9.12/10
Step  1400/2000   70.0% | t 70.000 | ETA 1m 17s | step 0.13s | KE 86.8570 | drift -0.32% | fluid 9.0901 | solid 77.7669
  Impulse FP iterations last/mean/max 9/9.11/10
Step  1500/2000   75.0% | t 75.000 | ETA 1m 4s | step 0.13s | KE 86.8427 | drift -0.33% | fluid 8.8083 | solid 78.0343
  Impulse FP iterations last/mean/max 9/9.11/10
Step  1600/2000   80.0% | t 80.000 | ETA 51s | step 0.11s | KE 86.8499 | drift -0.32% | fluid 8.4655 | solid 78.3844
  Impulse FP iterations last/mean/max 9/9.10/10
Step  1700/2000   85.0% | t 85.000 | ETA 38s | step 0.12s | KE 86.8477 | drift -0.33% | fluid 8.6464 | solid 78.2013
  Impulse FP iterations last/mean/max 9/9.09/10
Step  1800/2000   90.0% | t 90.000 | ETA 25s | step 0.13s | KE 86.8561 | drift -0.32% | fluid 8.8709 | solid 77.9852
  Impulse FP iterations last/mean/max 9/9.09/10
Step  1900/2000   95.0% | t 95.000 | ETA 12s | step 0.13s | KE 86.8692 | drift -0.30% | fluid 8.8652 | solid 78.0040
  Impulse FP iterations last/mean/max 9/9.08/10
Solver finished successfully - good job!
Results saved successfully.

================== Run summary ==================
  Bodies:            2
  Triangles / nodes: 256 / 516
  Timesteps:         2000  (dt = 0.05)
  Simulated time:    0 -> 100
  First-step setup:  0.252 s
  Mean time/step:    0.1280 s  (excl. first step)
  Total wall time:   4m 16s
  Impulse FP iters last/mean/max: 9 / 9.076 / 10
  Approx impulse solves/step:     9.077
  Impulse start cache hits/direct: 1999 / 1
  Impulse global drift P/H:       4.180643e-8 / 1.334507e-2
  Impulse per-body max drift P/H: 4.946884e-8 / 5.907483e-3
  CPU cores:         256 available, 8 Rayon worker thread(s)
  Started:           2026-06-22 19:39:26
  Finished:          2026-06-22 19:43:42
  Output file:       /work/e643/e643/shared/multi_ellip/studies/two_body_paper_sweeps/runs/spheroid_1_0p7_0p7/spheroid_1_0p7_0p7_rho1_E11_sep8_run01_impulse_noproj/multiple_body_complete.dat
================================================
