
================ Simulation setup ================
  Run label:         /work/e643/e643/shared/multi_ellip/studies/two_body_paper_sweeps/runs/ellipsoid_1_0p8_0p6/ellipsoid_1_0p8_0p6_rho10_E11_sep3_run03_impulse_noproj/
  Started:           2026-06-24 01:21:18
  Input file:        /work/e643/e643/shared/multi_ellip/studies/two_body_paper_sweeps/runs/ellipsoid_1_0p8_0p6/ellipsoid_1_0p8_0p6_rho10_E11_sep3_run03_impulse_noproj/input.txt
  Output file:       /work/e643/e643/shared/multi_ellip/studies/two_body_paper_sweeps/runs/ellipsoid_1_0p8_0p6/ellipsoid_1_0p8_0p6_rho10_E11_sep3_run03_impulse_noproj/multiple_body_complete.dat
  Bodies:            2
  Fluid density:     1
  Mesh:              ndiv 2 -> 256 triangles / 516 nodes
  Simulated time:    0 -> 100  (dt = 0.05, ~2000 steps)
  Output cadence:    every 1 step(s)
  Output rows:       ~2001
  Progress cadence:  every 100 step(s)
  CPU cores:         256 available, 8 Rayon worker thread(s)
  Strong coupling:   disabled
  Impulse scheme:    enabled
  Hamiltonian step:  disabled
  Hamiltonian midpt: disabled
  Variational step:  disabled
  Energy projection: disabled
  Projection particular metric: Euclidean
  Fluid KE gradient: disabled  (eps = 0.001, scale = 1, linear = 1, angular = 1)
  Fluid KE discrete gradient: disabled
  Impulse pair metric correction: disabled  (mode = pair discrete-gradient, cutoff = all pairs, inner/outer = 0/0, eps = 0.001, linear scale = 1, angular scale = 0)
  Impulse metric correction: disabled  (internal load constraint = disabled)
  Impulse variational defect probe: disabled
  Impulse quadratic pressure: disabled  (scale = 1)
  Added-mass stab:   disabled
  Exact BEM geometry: disabled
  Exact singular BEM: disabled
  Legacy singular SLP diagnostic: disabled
  Phi-dot blend:     0 (off)

  Solver guidance:
    - Strong coupling: use for stiff close-coupled runs; slower but more implicit.
    - Impulse scheme: use when impulse/momentum conservation or KE drift is the focus. Recommended.
    - Added-mass stab: use for higher mesh counts (ndiv > 3) to preserve stability - deprecated.
================================================
Solver starting - good luck!

Initial state:
  Body  1
    density:          10.000000
    shape axes ratio: (1.000000, 0.800000, 0.600000)
    initial KE ratio: 11.000000
    position:         (-1.500000, 0.000000, 0.000000)
    velocity:         (-1.132624, 0.217421, -0.164850)
    angular velocity: (4.956592, -3.410514, 1.810804)
    orientation:      (w=-0.700103, i=0.241786, j=-0.507617, k=-0.440135)
  Body  2
    density:          10.000000
    shape axes ratio: (1.000000, 0.800000, 0.600000)
    initial KE ratio: 11.000000
    position:         (1.500000, 0.000000, 0.000000)
    velocity:         (-1.183621, 0.227210, -0.172272)
    angular velocity: (3.604363, -4.800229, 1.856014)
    orientation:      (w=-0.392874, i=0.729835, j=0.526325, k=-0.189666)

Preparing first step: implicit scheme, no bootstrap passes required.
First step may take longer than later steps.

First step completed in 0.247 s.

Step   100/2000    5.0% | t 5.000 | ETA 3m 21s | step 0.12s | KE 825.5592 | drift -0.19% | fluid 9.3382 | solid 816.2209
  Impulse FP iterations last/mean/max 8/7.41/8
Step   200/2000   10.0% | t 10.000 | ETA 3m 10s | step 0.12s | KE 823.2301 | drift -0.48% | fluid 8.5998 | solid 814.6303
  Impulse FP iterations last/mean/max 8/7.32/8
Step   300/2000   15.0% | t 15.000 | ETA 3m 2s | step 0.10s | KE 821.0614 | drift -0.74% | fluid 8.2844 | solid 812.7770
  Impulse FP iterations last/mean/max 7/7.33/9
Step   400/2000   20.0% | t 20.000 | ETA 2m 57s | step 0.13s | KE 818.9335 | drift -0.99% | fluid 12.8925 | solid 806.0409
  Impulse FP iterations last/mean/max 8/7.41/12
Step   500/2000   25.0% | t 25.000 | ETA 2m 54s | step 0.13s | KE 850.1273 | drift +2.78% | fluid 11.6868 | solid 838.4405
  Impulse FP iterations last/mean/max 8/7.58/30
Step   600/2000   30.0% | t 30.000 | ETA 2m 50s | step 0.13s | KE 861.6768 | drift +4.17% | fluid 10.3814 | solid 851.2954
  Impulse FP iterations last/mean/max 8/7.75/30
Step   700/2000   35.0% | t 35.000 | ETA 2m 39s | step 0.11s | KE 876.7602 | drift +6.00% | fluid 13.9324 | solid 862.8278
  Impulse FP iterations last/mean/max 8/7.77/30
Step   800/2000   40.0% | t 40.000 | ETA 2m 24s | step 0.10s | KE 878.9348 | drift +6.26% | fluid 12.9497 | solid 865.9851
  Impulse FP iterations last/mean/max 7/7.72/30
Step   900/2000   45.0% | t 45.000 | ETA 2m 10s | step 0.10s | KE 879.4203 | drift +6.32% | fluid 12.7823 | solid 866.6380
  Impulse FP iterations last/mean/max 7/7.66/30
Step  1000/2000   50.0% | t 50.000 | ETA 1m 57s | step 0.10s | KE 879.6066 | drift +6.34% | fluid 13.3067 | solid 866.3000
  Impulse FP iterations last/mean/max 7/7.63/30
Step  1100/2000   55.0% | t 55.000 | ETA 1m 44s | step 0.09s | KE 879.7083 | drift +6.35% | fluid 12.3347 | solid 867.3736
  Impulse FP iterations last/mean/max 7/7.60/30
Step  1200/2000   60.0% | t 60.000 | ETA 1m 31s | step 0.12s | KE 879.7446 | drift +6.36% | fluid 13.4857 | solid 866.2589
  Impulse FP iterations last/mean/max 8/7.58/30
Step  1300/2000   65.0% | t 65.000 | ETA 1m 19s | step 0.10s | KE 879.7976 | drift +6.36% | fluid 12.3199 | solid 867.4777
  Impulse FP iterations last/mean/max 7/7.57/30
Step  1400/2000   70.0% | t 70.000 | ETA 1m 7s | step 0.10s | KE 879.8138 | drift +6.37% | fluid 12.5264 | solid 867.2874
  Impulse FP iterations last/mean/max 7/7.54/30
Step  1500/2000   75.0% | t 75.000 | ETA 56s | step 0.09s | KE 879.8386 | drift +6.37% | fluid 12.4412 | solid 867.3974
  Impulse FP iterations last/mean/max 7/7.53/30
Step  1600/2000   80.0% | t 80.000 | ETA 44s | step 0.10s | KE 879.8505 | drift +6.37% | fluid 11.5232 | solid 868.3273
  Impulse FP iterations last/mean/max 7/7.51/30
Step  1700/2000   85.0% | t 85.000 | ETA 33s | step 0.09s | KE 879.8463 | drift +6.37% | fluid 12.6421 | solid 867.2042
  Impulse FP iterations last/mean/max 7/7.51/30
Step  1800/2000   90.0% | t 90.000 | ETA 22s | step 0.10s | KE 879.8626 | drift +6.37% | fluid 11.3273 | solid 868.5354
  Impulse FP iterations last/mean/max 7/7.49/30
Step  1900/2000   95.0% | t 95.000 | ETA 10s | step 0.07s | KE 879.8538 | drift +6.37% | fluid 12.0384 | solid 867.8154
  Impulse FP iterations last/mean/max 8/7.48/30
Solver finished successfully - good job!
Results saved successfully.

================== Run summary ==================
  Bodies:            2
  Triangles / nodes: 256 / 516
  Timesteps:         2000  (dt = 0.05)
  Simulated time:    0 -> 100
  First-step setup:  0.247 s
  Mean time/step:    0.1071 s  (excl. first step)
  Total wall time:   3m 34s
  Impulse FP iters last/mean/max: 7 / 7.478 / 30
  Approx impulse solves/step:     7.478
  Impulse start cache hits/direct: 1999 / 1
  Impulse global drift P/H:       1.499019e-1 / 1.390893e0
  Impulse per-body max drift P/H: 2.536907e-1 / 2.844525e0
  CPU cores:         256 available, 8 Rayon worker thread(s)
  Started:           2026-06-24 01:21:18
  Finished:          2026-06-24 01:24:53
  Output file:       /work/e643/e643/shared/multi_ellip/studies/two_body_paper_sweeps/runs/ellipsoid_1_0p8_0p6/ellipsoid_1_0p8_0p6_rho10_E11_sep3_run03_impulse_noproj/multiple_body_complete.dat
================================================
