
================ Simulation setup ================
  Run label:         /work/e643/e643/shared/multi_ellip/studies/two_body_paper_sweeps/runs/spheroid_1_0p7_0p7/spheroid_1_0p7_0p7_rho10_E11_sep5_run03_impulse_noproj/
  Started:           2026-06-24 01:18:37
  Input file:        /work/e643/e643/shared/multi_ellip/studies/two_body_paper_sweeps/runs/spheroid_1_0p7_0p7/spheroid_1_0p7_0p7_rho10_E11_sep5_run03_impulse_noproj/input.txt
  Output file:       /work/e643/e643/shared/multi_ellip/studies/two_body_paper_sweeps/runs/spheroid_1_0p7_0p7/spheroid_1_0p7_0p7_rho10_E11_sep5_run03_impulse_noproj/multiple_body_complete.dat
  Bodies:            2
  Fluid density:     1
  Mesh:              ndiv 2 -> 256 triangles / 516 nodes
  Simulated time:    0 -> 100  (dt = 0.05, ~2000 steps)
  Output cadence:    every 1 step(s)
  Output rows:       ~2001
  Progress cadence:  every 100 step(s)
  CPU cores:         256 available, 8 Rayon worker thread(s)
  Strong coupling:   disabled
  Impulse scheme:    enabled
  Hamiltonian step:  disabled
  Hamiltonian midpt: disabled
  Variational step:  disabled
  Energy projection: disabled
  Projection particular metric: Euclidean
  Fluid KE gradient: disabled  (eps = 0.001, scale = 1, linear = 1, angular = 1)
  Fluid KE discrete gradient: disabled
  Impulse pair metric correction: disabled  (mode = pair discrete-gradient, cutoff = all pairs, inner/outer = 0/0, eps = 0.001, linear scale = 1, angular scale = 0)
  Impulse metric correction: disabled  (internal load constraint = disabled)
  Impulse variational defect probe: disabled
  Impulse quadratic pressure: disabled  (scale = 1)
  Added-mass stab:   disabled
  Exact BEM geometry: disabled
  Exact singular BEM: disabled
  Legacy singular SLP diagnostic: disabled
  Phi-dot blend:     0 (off)

  Solver guidance:
    - Strong coupling: use for stiff close-coupled runs; slower but more implicit.
    - Impulse scheme: use when impulse/momentum conservation or KE drift is the focus. Recommended.
    - Added-mass stab: use for higher mesh counts (ndiv > 3) to preserve stability - deprecated.
================================================
Solver starting - good luck!

Initial state:
  Body  1
    density:          10.000000
    shape axes ratio: (1.000000, 0.700000, 0.700000)
    initial KE ratio: 11.000000
    position:         (-2.500000, 0.000000, 0.000000)
    velocity:         (-0.503801, -0.280204, 1.087710)
    angular velocity: (-3.709678, 5.005173, -0.815444)
    orientation:      (w=0.431994, i=-0.043089, j=-0.886588, k=-0.159645)
  Body  2
    density:          10.000000
    shape axes ratio: (1.000000, 0.700000, 0.700000)
    initial KE ratio: 11.000000
    position:         (2.500000, 0.000000, 0.000000)
    velocity:         (-0.506236, -0.281559, 1.092968)
    angular velocity: (-3.574549, 5.010546, -1.263109)
    orientation:      (w=0.165399, i=0.668434, j=-0.723825, k=0.043766)

Preparing first step: implicit scheme, no bootstrap passes required.
First step may take longer than later steps.

First step completed in 0.273 s.

Step   100/2000    5.0% | t 5.000 | ETA 2m 48s | step 0.08s | KE 770.9034 | drift -0.25% | fluid 7.6169 | solid 763.2865
  Impulse FP iterations last/mean/max 7/6.88/8
Step   200/2000   10.0% | t 10.000 | ETA 2m 41s | step 0.09s | KE 768.8769 | drift -0.51% | fluid 8.0021 | solid 760.8747
  Impulse FP iterations last/mean/max 7/6.88/8
Step   300/2000   15.0% | t 15.000 | ETA 2m 35s | step 0.10s | KE 766.7721 | drift -0.78% | fluid 8.2492 | solid 758.5228
  Impulse FP iterations last/mean/max 7/6.87/8
Step   400/2000   20.0% | t 20.000 | ETA 2m 29s | step 0.10s | KE 764.6283 | drift -1.06% | fluid 8.0501 | solid 756.5782
  Impulse FP iterations last/mean/max 7/6.91/8
Step   500/2000   25.0% | t 25.000 | ETA 2m 22s | step 0.10s | KE 762.4827 | drift -1.34% | fluid 7.6031 | solid 754.8796
  Impulse FP iterations last/mean/max 7/6.91/8
Step   600/2000   30.0% | t 30.000 | ETA 2m 13s | step 0.10s | KE 760.3383 | drift -1.62% | fluid 7.5730 | solid 752.7653
  Impulse FP iterations last/mean/max 7/6.91/8
Step   700/2000   35.0% | t 35.000 | ETA 2m 4s | step 0.09s | KE 758.1763 | drift -1.90% | fluid 8.1084 | solid 750.0678
  Impulse FP iterations last/mean/max 7/6.92/8
Step   800/2000   40.0% | t 40.000 | ETA 1m 55s | step 0.10s | KE 756.0076 | drift -2.18% | fluid 8.2836 | solid 747.7240
  Impulse FP iterations last/mean/max 7/6.93/8
Step   900/2000   45.0% | t 45.000 | ETA 1m 46s | step 0.10s | KE 753.9295 | drift -2.45% | fluid 7.5959 | solid 746.3336
  Impulse FP iterations last/mean/max 7/6.93/8
Step  1000/2000   50.0% | t 50.000 | ETA 1m 36s | step 0.11s | KE 751.9770 | drift -2.70% | fluid 7.2565 | solid 744.7205
  Impulse FP iterations last/mean/max 7/6.93/8
Step  1100/2000   55.0% | t 55.000 | ETA 1m 27s | step 0.10s | KE 750.1245 | drift -2.94% | fluid 7.7108 | solid 742.4136
  Impulse FP iterations last/mean/max 7/6.93/8
Step  1200/2000   60.0% | t 60.000 | ETA 1m 17s | step 0.11s | KE 748.3806 | drift -3.16% | fluid 7.4868 | solid 740.8938
  Impulse FP iterations last/mean/max 7/6.94/8
Step  1300/2000   65.0% | t 65.000 | ETA 1m 8s | step 0.10s | KE 746.7886 | drift -3.37% | fluid 7.1315 | solid 739.6572
  Impulse FP iterations last/mean/max 7/6.94/8
Step  1400/2000   70.0% | t 70.000 | ETA 58s | step 0.09s | KE 745.5307 | drift -3.53% | fluid 7.9605 | solid 737.5702
  Impulse FP iterations last/mean/max 7/6.95/8
Step  1500/2000   75.0% | t 75.000 | ETA 48s | step 0.09s | KE 744.4995 | drift -3.67% | fluid 8.1727 | solid 736.3268
  Impulse FP iterations last/mean/max 7/6.95/8
Step  1600/2000   80.0% | t 80.000 | ETA 39s | step 0.08s | KE 743.8363 | drift -3.75% | fluid 7.4690 | solid 736.3672
  Impulse FP iterations last/mean/max 6/6.95/8
Step  1700/2000   85.0% | t 85.000 | ETA 29s | step 0.12s | KE 743.6794 | drift -3.77% | fluid 7.7204 | solid 735.9590
  Impulse FP iterations last/mean/max 8/6.95/8
Step  1800/2000   90.0% | t 90.000 | ETA 19s | step 0.09s | KE 743.6970 | drift -3.77% | fluid 7.5391 | solid 736.1579
  Impulse FP iterations last/mean/max 7/6.95/8
Step  1900/2000   95.0% | t 95.000 | ETA 9s | step 0.08s | KE 744.1083 | drift -3.72% | fluid 7.0342 | solid 737.0740
  Impulse FP iterations last/mean/max 7/6.95/8
Solver finished successfully - good job!
Results saved successfully.

================== Run summary ==================
  Bodies:            2
  Triangles / nodes: 256 / 516
  Timesteps:         2000  (dt = 0.05)
  Simulated time:    0 -> 100
  First-step setup:  0.273 s
  Mean time/step:    0.0961 s  (excl. first step)
  Total wall time:   3m 12s
  Impulse FP iters last/mean/max: 7 / 6.949 / 8
  Approx impulse solves/step:     6.949
  Impulse start cache hits/direct: 1999 / 1
  Impulse global drift P/H:       7.662064e-9 / 2.801545e-3
  Impulse per-body max drift P/H: 7.845562e-9 / 4.458703e-3
  CPU cores:         256 available, 8 Rayon worker thread(s)
  Started:           2026-06-24 01:18:37
  Finished:          2026-06-24 01:21:50
  Output file:       /work/e643/e643/shared/multi_ellip/studies/two_body_paper_sweeps/runs/spheroid_1_0p7_0p7/spheroid_1_0p7_0p7_rho10_E11_sep5_run03_impulse_noproj/multiple_body_complete.dat
================================================
