
================ Simulation setup ================
  Run label:         /work/e643/e643/shared/multi_ellip/studies/two_body_paper_sweeps/runs/spheroid_1_0p7_0p7/spheroid_1_0p7_0p7_rho0p03_E11_sep8_run05_impulse_noproj/
  Started:           2026-06-24 02:33:37
  Input file:        /work/e643/e643/shared/multi_ellip/studies/two_body_paper_sweeps/runs/spheroid_1_0p7_0p7/spheroid_1_0p7_0p7_rho0p03_E11_sep8_run05_impulse_noproj/input.txt
  Output file:       /work/e643/e643/shared/multi_ellip/studies/two_body_paper_sweeps/runs/spheroid_1_0p7_0p7/spheroid_1_0p7_0p7_rho0p03_E11_sep8_run05_impulse_noproj/multiple_body_complete.dat
  Bodies:            2
  Fluid density:     1
  Mesh:              ndiv 2 -> 256 triangles / 516 nodes
  Simulated time:    0 -> 100  (dt = 0.05, ~2000 steps)
  Output cadence:    every 1 step(s)
  Output rows:       ~2001
  Progress cadence:  every 100 step(s)
  CPU cores:         256 available, 8 Rayon worker thread(s)
  Strong coupling:   disabled
  Impulse scheme:    enabled
  Hamiltonian step:  disabled
  Hamiltonian midpt: disabled
  Variational step:  disabled
  Energy projection: disabled
  Projection particular metric: Euclidean
  Fluid KE gradient: disabled  (eps = 0.001, scale = 1, linear = 1, angular = 1)
  Fluid KE discrete gradient: disabled
  Impulse pair metric correction: disabled  (mode = pair discrete-gradient, cutoff = all pairs, inner/outer = 0/0, eps = 0.001, linear scale = 1, angular scale = 0)
  Impulse metric correction: disabled  (internal load constraint = disabled)
  Impulse variational defect probe: disabled
  Impulse quadratic pressure: disabled  (scale = 1)
  Added-mass stab:   disabled
  Exact BEM geometry: disabled
  Exact singular BEM: disabled
  Legacy singular SLP diagnostic: disabled
  Phi-dot blend:     0 (off)

  Solver guidance:
    - Strong coupling: use for stiff close-coupled runs; slower but more implicit.
    - Impulse scheme: use when impulse/momentum conservation or KE drift is the focus. Recommended.
    - Added-mass stab: use for higher mesh counts (ndiv > 3) to preserve stability - deprecated.
================================================
Solver starting - good luck!

Initial state:
  Body  1
    density:          0.030000
    shape axes ratio: (1.000000, 0.700000, 0.700000)
    initial KE ratio: 11.000000
    position:         (-4.000000, 0.000000, 0.000000)
    velocity:         (-0.055455, 1.277465, -0.204849)
    angular velocity: (-1.713445, 5.753578, 1.854419)
    orientation:      (w=0.474216, i=0.385876, j=-0.644243, k=0.459532)
  Body  2
    density:          0.030000
    shape axes ratio: (1.000000, 0.700000, 0.700000)
    initial KE ratio: 11.000000
    position:         (4.000000, 0.000000, 0.000000)
    velocity:         (-0.056049, 1.291150, -0.207044)
    angular velocity: (-0.717402, 3.676039, -5.044848)
    orientation:      (w=-0.826178, i=-0.411961, j=0.378205, k=0.068406)

Preparing first step: implicit scheme, no bootstrap passes required.
First step may take longer than later steps.

First step completed in 0.329 s.

Step   100/2000    5.0% | t 5.000 | ETA 7m 5s | step 0.23s | KE 10.8983 | drift +0.09% | fluid 8.5647 | solid 2.3336
  Impulse FP iterations last/mean/max 19/19.16/22
Step   200/2000   10.0% | t 10.000 | ETA 6m 44s | step 0.22s | KE 10.9000 | drift +0.11% | fluid 8.5970 | solid 2.3031
  Impulse FP iterations last/mean/max 20/19.27/22
Step   300/2000   15.0% | t 15.000 | ETA 6m 17s | step 0.20s | KE 10.8984 | drift +0.09% | fluid 8.5767 | solid 2.3218
  Impulse FP iterations last/mean/max 19/19.21/22
Step   400/2000   20.0% | t 20.000 | ETA 5m 48s | step 0.18s | KE 10.9090 | drift +0.19% | fluid 8.5892 | solid 2.3199
  Impulse FP iterations last/mean/max 18/19.19/22
Step   500/2000   25.0% | t 25.000 | ETA 5m 20s | step 0.18s | KE 10.9067 | drift +0.17% | fluid 8.5758 | solid 2.3309
  Impulse FP iterations last/mean/max 18/19.13/22
Step   600/2000   30.0% | t 30.000 | ETA 4m 59s | step 0.24s | KE 10.9039 | drift +0.14% | fluid 8.5946 | solid 2.3093
  Impulse FP iterations last/mean/max 20/19.12/22
Step   700/2000   35.0% | t 35.000 | ETA 4m 40s | step 0.22s | KE 10.9027 | drift +0.13% | fluid 8.5836 | solid 2.3191
  Impulse FP iterations last/mean/max 19/19.10/22
Step   800/2000   40.0% | t 40.000 | ETA 4m 20s | step 0.21s | KE 10.9107 | drift +0.21% | fluid 8.5850 | solid 2.3256
  Impulse FP iterations last/mean/max 18/19.09/22
Step   900/2000   45.0% | t 45.000 | ETA 3m 59s | step 0.23s | KE 10.9079 | drift +0.18% | fluid 8.5817 | solid 2.3262
  Impulse FP iterations last/mean/max 18/19.07/22
Step  1000/2000   50.0% | t 50.000 | ETA 3m 37s | step 0.23s | KE 10.9046 | drift +0.15% | fluid 8.5902 | solid 2.3143
  Impulse FP iterations last/mean/max 20/19.07/22
Step  1100/2000   55.0% | t 55.000 | ETA 3m 16s | step 0.23s | KE 10.9036 | drift +0.14% | fluid 8.5893 | solid 2.3143
  Impulse FP iterations last/mean/max 19/19.05/22
Step  1200/2000   60.0% | t 60.000 | ETA 2m 54s | step 0.20s | KE 10.9112 | drift +0.21% | fluid 8.5809 | solid 2.3303
  Impulse FP iterations last/mean/max 18/19.06/22
Step  1300/2000   65.0% | t 65.000 | ETA 2m 32s | step 0.20s | KE 10.9083 | drift +0.18% | fluid 8.5875 | solid 2.3208
  Impulse FP iterations last/mean/max 18/19.04/22
Step  1400/2000   70.0% | t 70.000 | ETA 2m 11s | step 0.27s | KE 10.9051 | drift +0.15% | fluid 8.5864 | solid 2.3187
  Impulse FP iterations last/mean/max 22/19.05/22
Step  1500/2000   75.0% | t 75.000 | ETA 1m 50s | step 0.26s | KE 10.9040 | drift +0.14% | fluid 8.5954 | solid 2.3086
  Impulse FP iterations last/mean/max 19/19.04/22
Step  1600/2000   80.0% | t 80.000 | ETA 1m 28s | step 0.22s | KE 10.9117 | drift +0.21% | fluid 8.5776 | solid 2.3341
  Impulse FP iterations last/mean/max 19/19.04/22
Step  1700/2000   85.0% | t 85.000 | ETA 1m 6s | step 0.22s | KE 10.9086 | drift +0.19% | fluid 8.5937 | solid 2.3149
  Impulse FP iterations last/mean/max 18/19.03/22
Step  1800/2000   90.0% | t 90.000 | ETA 44s | step 0.26s | KE 10.9057 | drift +0.16% | fluid 8.5834 | solid 2.3223
  Impulse FP iterations last/mean/max 22/19.02/22
Step  1900/2000   95.0% | t 95.000 | ETA 22s | step 0.22s | KE 10.9043 | drift +0.15% | fluid 8.6020 | solid 2.3023
  Impulse FP iterations last/mean/max 19/19.02/22
Solver finished successfully - good job!
Results saved successfully.

================== Run summary ==================
  Bodies:            2
  Triangles / nodes: 256 / 516
  Timesteps:         2000  (dt = 0.05)
  Simulated time:    0 -> 100
  First-step setup:  0.329 s
  Mean time/step:    0.2233 s  (excl. first step)
  Total wall time:   7m 26s
  Impulse FP iters last/mean/max: 21 / 19.019 / 22
  Approx impulse solves/step:     19.019
  Impulse start cache hits/direct: 1999 / 1
  Impulse global drift P/H:       7.190454e-8 / 3.344061e-3
  Impulse per-body max drift P/H: 1.001330e-7 / 5.619465e-4
  CPU cores:         256 available, 8 Rayon worker thread(s)
  Started:           2026-06-24 02:33:37
  Finished:          2026-06-24 02:41:04
  Output file:       /work/e643/e643/shared/multi_ellip/studies/two_body_paper_sweeps/runs/spheroid_1_0p7_0p7/spheroid_1_0p7_0p7_rho0p03_E11_sep8_run05_impulse_noproj/multiple_body_complete.dat
================================================
