
================ Simulation setup ================
  Run label:         /work/e643/e643/shared/multi_ellip/studies/two_body_paper_sweeps/runs/ellipsoid_1_0p8_0p6/ellipsoid_1_0p8_0p6_rho4_E0p2_sep8_run04_impulse_noproj/
  Started:           2026-06-24 01:24:55
  Input file:        /work/e643/e643/shared/multi_ellip/studies/two_body_paper_sweeps/runs/ellipsoid_1_0p8_0p6/ellipsoid_1_0p8_0p6_rho4_E0p2_sep8_run04_impulse_noproj/input.txt
  Output file:       /work/e643/e643/shared/multi_ellip/studies/two_body_paper_sweeps/runs/ellipsoid_1_0p8_0p6/ellipsoid_1_0p8_0p6_rho4_E0p2_sep8_run04_impulse_noproj/multiple_body_complete.dat
  Bodies:            2
  Fluid density:     1
  Mesh:              ndiv 2 -> 256 triangles / 516 nodes
  Simulated time:    0 -> 100  (dt = 0.05, ~2000 steps)
  Output cadence:    every 1 step(s)
  Output rows:       ~2001
  Progress cadence:  every 100 step(s)
  CPU cores:         256 available, 8 Rayon worker thread(s)
  Strong coupling:   disabled
  Impulse scheme:    enabled
  Hamiltonian step:  disabled
  Hamiltonian midpt: disabled
  Variational step:  disabled
  Energy projection: disabled
  Projection particular metric: Euclidean
  Fluid KE gradient: disabled  (eps = 0.001, scale = 1, linear = 1, angular = 1)
  Fluid KE discrete gradient: disabled
  Impulse pair metric correction: disabled  (mode = pair discrete-gradient, cutoff = all pairs, inner/outer = 0/0, eps = 0.001, linear scale = 1, angular scale = 0)
  Impulse metric correction: disabled  (internal load constraint = disabled)
  Impulse variational defect probe: disabled
  Impulse quadratic pressure: disabled  (scale = 1)
  Added-mass stab:   disabled
  Exact BEM geometry: disabled
  Exact singular BEM: disabled
  Legacy singular SLP diagnostic: disabled
  Phi-dot blend:     0 (off)

  Solver guidance:
    - Strong coupling: use for stiff close-coupled runs; slower but more implicit.
    - Impulse scheme: use when impulse/momentum conservation or KE drift is the focus. Recommended.
    - Added-mass stab: use for higher mesh counts (ndiv > 3) to preserve stability - deprecated.
================================================
Solver starting - good luck!

Initial state:
  Body  1
    density:          4.000000
    shape axes ratio: (1.000000, 0.800000, 0.600000)
    initial KE ratio: 0.200000
    position:         (-4.000000, 0.000000, 0.000000)
    velocity:         (3.676099, -9.387020, 0.709507)
    angular velocity: (-1.294301, -1.945631, 5.832471)
    orientation:      (w=-0.757824, i=0.329116, j=0.496557, k=0.266115)
  Body  2
    density:          4.000000
    shape axes ratio: (1.000000, 0.800000, 0.600000)
    initial KE ratio: 0.200000
    position:         (4.000000, 0.000000, 0.000000)
    velocity:         (3.445981, -8.799407, 0.665093)
    angular velocity: (-3.872963, -0.670042, -4.902001)
    orientation:      (w=0.300902, i=-0.526274, j=0.791939, k=-0.072973)

Preparing first step: implicit scheme, no bootstrap passes required.
First step may take longer than later steps.

First step completed in 0.275 s.

Step   100/2000    5.0% | t 5.000 | ETA 3m 54s | step 0.13s | KE 2128.7090 | drift +0.23% | fluid 233.4335 | solid 1895.2755
  Impulse FP iterations last/mean/max 9/8.87/10
Step   200/2000   10.0% | t 10.000 | ETA 3m 45s | step 0.12s | KE 2137.1037 | drift +0.63% | fluid 201.8473 | solid 1935.2564
  Impulse FP iterations last/mean/max 9/8.89/10
Step   300/2000   15.0% | t 15.000 | ETA 3m 34s | step 0.12s | KE 2136.0823 | drift +0.58% | fluid 212.3868 | solid 1923.6955
  Impulse FP iterations last/mean/max 9/8.89/10
Step   400/2000   20.0% | t 20.000 | ETA 3m 22s | step 0.12s | KE 2133.0168 | drift +0.44% | fluid 251.2075 | solid 1881.8093
  Impulse FP iterations last/mean/max 9/8.91/10
Step   500/2000   25.0% | t 25.000 | ETA 3m 9s | step 0.12s | KE 2134.3422 | drift +0.50% | fluid 187.8355 | solid 1946.5066
  Impulse FP iterations last/mean/max 8/8.91/10
Step   600/2000   30.0% | t 30.000 | ETA 2m 57s | step 0.13s | KE 2132.1549 | drift +0.39% | fluid 233.3013 | solid 1898.8536
  Impulse FP iterations last/mean/max 9/8.92/10
Step   700/2000   35.0% | t 35.000 | ETA 2m 44s | step 0.13s | KE 2132.1271 | drift +0.39% | fluid 237.9395 | solid 1894.1876
  Impulse FP iterations last/mean/max 9/8.91/10
Step   800/2000   40.0% | t 40.000 | ETA 2m 31s | step 0.12s | KE 2130.9909 | drift +0.34% | fluid 252.8007 | solid 1878.1903
  Impulse FP iterations last/mean/max 9/8.91/10
Step   900/2000   45.0% | t 45.000 | ETA 2m 19s | step 0.11s | KE 2131.7112 | drift +0.37% | fluid 278.9200 | solid 1852.7912
  Impulse FP iterations last/mean/max 8/8.91/10
Step  1000/2000   50.0% | t 50.000 | ETA 2m 6s | step 0.11s | KE 2132.8240 | drift +0.43% | fluid 201.0023 | solid 1931.8217
  Impulse FP iterations last/mean/max 8/8.91/10
Step  1100/2000   55.0% | t 55.000 | ETA 1m 54s | step 0.14s | KE 2132.4506 | drift +0.41% | fluid 238.1219 | solid 1894.3287
  Impulse FP iterations last/mean/max 9/8.91/10
Step  1200/2000   60.0% | t 60.000 | ETA 1m 41s | step 0.11s | KE 2132.0192 | drift +0.39% | fluid 263.4216 | solid 1868.5975
  Impulse FP iterations last/mean/max 9/8.92/10
Step  1300/2000   65.0% | t 65.000 | ETA 1m 28s | step 0.13s | KE 2131.0208 | drift +0.34% | fluid 282.2259 | solid 1848.7949
  Impulse FP iterations last/mean/max 9/8.92/10
Step  1400/2000   70.0% | t 70.000 | ETA 1m 16s | step 0.13s | KE 2130.5743 | drift +0.32% | fluid 281.9613 | solid 1848.6130
  Impulse FP iterations last/mean/max 9/8.91/10
Step  1500/2000   75.0% | t 75.000 | ETA 1m 3s | step 0.12s | KE 2132.1007 | drift +0.39% | fluid 228.9739 | solid 1903.1268
  Impulse FP iterations last/mean/max 9/8.91/10
Step  1600/2000   80.0% | t 80.000 | ETA 50s | step 0.12s | KE 2131.4920 | drift +0.36% | fluid 276.3929 | solid 1855.0990
  Impulse FP iterations last/mean/max 9/8.92/10
Step  1700/2000   85.0% | t 85.000 | ETA 37s | step 0.11s | KE 2132.8799 | drift +0.43% | fluid 231.5538 | solid 1901.3261
  Impulse FP iterations last/mean/max 9/8.92/10
Step  1800/2000   90.0% | t 90.000 | ETA 25s | step 0.12s | KE 2133.3736 | drift +0.45% | fluid 224.2568 | solid 1909.1168
  Impulse FP iterations last/mean/max 9/8.92/10
Step  1900/2000   95.0% | t 95.000 | ETA 12s | step 0.10s | KE 2132.9116 | drift +0.43% | fluid 223.8239 | solid 1909.0876
  Impulse FP iterations last/mean/max 9/8.92/10
Solver finished successfully - good job!
Results saved successfully.

================== Run summary ==================
  Bodies:            2
  Triangles / nodes: 256 / 516
  Timesteps:         2000  (dt = 0.05)
  Simulated time:    0 -> 100
  First-step setup:  0.275 s
  Mean time/step:    0.1230 s  (excl. first step)
  Total wall time:   4m 6s
  Impulse FP iters last/mean/max: 9 / 8.921 / 10
  Approx impulse solves/step:     8.921
  Impulse start cache hits/direct: 1999 / 1
  Impulse global drift P/H:       4.887405e-9 / 2.069444e-2
  Impulse per-body max drift P/H: 5.238874e-9 / 2.914489e-3
  CPU cores:         256 available, 8 Rayon worker thread(s)
  Started:           2026-06-24 01:24:55
  Finished:          2026-06-24 01:29:02
  Output file:       /work/e643/e643/shared/multi_ellip/studies/two_body_paper_sweeps/runs/ellipsoid_1_0p8_0p6/ellipsoid_1_0p8_0p6_rho4_E0p2_sep8_run04_impulse_noproj/multiple_body_complete.dat
================================================
