
================ Simulation setup ================
  Run label:         /work/e643/e643/shared/multi_ellip/studies/two_body_paper_sweeps/runs/spheroid_1_0p7_0p7/spheroid_1_0p7_0p7_rho0p3_E0p2_sep11_run05_impulse_noproj/
  Started:           2026-06-24 01:46:02
  Input file:        /work/e643/e643/shared/multi_ellip/studies/two_body_paper_sweeps/runs/spheroid_1_0p7_0p7/spheroid_1_0p7_0p7_rho0p3_E0p2_sep11_run05_impulse_noproj/input.txt
  Output file:       /work/e643/e643/shared/multi_ellip/studies/two_body_paper_sweeps/runs/spheroid_1_0p7_0p7/spheroid_1_0p7_0p7_rho0p3_E0p2_sep11_run05_impulse_noproj/multiple_body_complete.dat
  Bodies:            2
  Fluid density:     1
  Mesh:              ndiv 2 -> 256 triangles / 516 nodes
  Simulated time:    0 -> 100  (dt = 0.05, ~2000 steps)
  Output cadence:    every 1 step(s)
  Output rows:       ~2001
  Progress cadence:  every 100 step(s)
  CPU cores:         256 available, 8 Rayon worker thread(s)
  Strong coupling:   disabled
  Impulse scheme:    enabled
  Hamiltonian step:  disabled
  Hamiltonian midpt: disabled
  Variational step:  disabled
  Energy projection: disabled
  Projection particular metric: Euclidean
  Fluid KE gradient: disabled  (eps = 0.001, scale = 1, linear = 1, angular = 1)
  Fluid KE discrete gradient: disabled
  Impulse pair metric correction: disabled  (mode = pair discrete-gradient, cutoff = all pairs, inner/outer = 0/0, eps = 0.001, linear scale = 1, angular scale = 0)
  Impulse metric correction: disabled  (internal load constraint = disabled)
  Impulse variational defect probe: disabled
  Impulse quadratic pressure: disabled  (scale = 1)
  Added-mass stab:   disabled
  Exact BEM geometry: disabled
  Exact singular BEM: disabled
  Legacy singular SLP diagnostic: disabled
  Phi-dot blend:     0 (off)

  Solver guidance:
    - Strong coupling: use for stiff close-coupled runs; slower but more implicit.
    - Impulse scheme: use when impulse/momentum conservation or KE drift is the focus. Recommended.
    - Added-mass stab: use for higher mesh counts (ndiv > 3) to preserve stability - deprecated.
================================================
Solver starting - good luck!

Initial state:
  Body  1
    density:          0.300000
    shape axes ratio: (1.000000, 0.700000, 0.700000)
    initial KE ratio: 0.200000
    position:         (-5.500000, 0.000000, 0.000000)
    velocity:         (0.285189, -8.527789, 2.890721)
    angular velocity: (4.053262, 3.121398, -3.647789)
    orientation:      (w=0.302308, i=0.845554, j=-0.291691, k=0.329491)
  Body  2
    density:          0.300000
    shape axes ratio: (1.000000, 0.700000, 0.700000)
    initial KE ratio: 0.200000
    position:         (5.500000, 0.000000, 0.000000)
    velocity:         (0.300592, -8.988360, 3.046844)
    angular velocity: (2.335916, 5.147427, 2.743340)
    orientation:      (w=0.244203, i=-0.447210, j=-0.574179, k=-0.640848)

Preparing first step: implicit scheme, no bootstrap passes required.
First step may take longer than later steps.

First step completed in 0.294 s.

Step   100/2000    5.0% | t 5.000 | ETA 5m 32s | step 0.18s | KE 360.4042 | drift +0.06% | fluid 229.8090 | solid 130.5952
  Impulse FP iterations last/mean/max 14/13.11/14
Step   200/2000   10.0% | t 10.000 | ETA 5m 26s | step 0.18s | KE 360.4620 | drift +0.07% | fluid 229.5405 | solid 130.9215
  Impulse FP iterations last/mean/max 13/13.11/14
Step   300/2000   15.0% | t 15.000 | ETA 5m 11s | step 0.19s | KE 360.3287 | drift +0.04% | fluid 229.3254 | solid 131.0032
  Impulse FP iterations last/mean/max 13/13.12/14
Step   400/2000   20.0% | t 20.000 | ETA 4m 54s | step 0.20s | KE 360.2916 | drift +0.03% | fluid 229.4555 | solid 130.8361
  Impulse FP iterations last/mean/max 13/13.10/14
Step   500/2000   25.0% | t 25.000 | ETA 4m 38s | step 0.20s | KE 360.8033 | drift +0.17% | fluid 229.5881 | solid 131.2152
  Impulse FP iterations last/mean/max 13/13.11/14
Step   600/2000   30.0% | t 30.000 | ETA 4m 20s | step 0.19s | KE 361.2491 | drift +0.29% | fluid 229.6738 | solid 131.5753
  Impulse FP iterations last/mean/max 13/13.11/14
Step   700/2000   35.0% | t 35.000 | ETA 4m 2s | step 0.18s | KE 360.1927 | drift -0.00% | fluid 229.3268 | solid 130.8659
  Impulse FP iterations last/mean/max 13/13.11/14
Step   800/2000   40.0% | t 40.000 | ETA 3m 43s | step 0.19s | KE 360.0061 | drift -0.05% | fluid 229.3893 | solid 130.6169
  Impulse FP iterations last/mean/max 13/13.10/14
Step   900/2000   45.0% | t 45.000 | ETA 3m 24s | step 0.20s | KE 360.7605 | drift +0.16% | fluid 229.6587 | solid 131.1017
  Impulse FP iterations last/mean/max 14/13.10/14
Step  1000/2000   50.0% | t 50.000 | ETA 3m 6s | step 0.20s | KE 360.5142 | drift +0.09% | fluid 229.6491 | solid 130.8651
  Impulse FP iterations last/mean/max 14/13.10/14
Step  1100/2000   55.0% | t 55.000 | ETA 2m 47s | step 0.19s | KE 360.2034 | drift +0.00% | fluid 229.5988 | solid 130.6046
  Impulse FP iterations last/mean/max 13/13.10/14
Step  1200/2000   60.0% | t 60.000 | ETA 2m 29s | step 0.19s | KE 360.1524 | drift -0.01% | fluid 229.2433 | solid 130.9091
  Impulse FP iterations last/mean/max 14/13.10/14
Step  1300/2000   65.0% | t 65.000 | ETA 2m 10s | step 0.19s | KE 360.8583 | drift +0.18% | fluid 229.4909 | solid 131.3673
  Impulse FP iterations last/mean/max 13/13.10/14
Step  1400/2000   70.0% | t 70.000 | ETA 1m 52s | step 0.19s | KE 360.8360 | drift +0.18% | fluid 229.7287 | solid 131.1073
  Impulse FP iterations last/mean/max 13/13.09/14
Step  1500/2000   75.0% | t 75.000 | ETA 1m 33s | step 0.18s | KE 360.6341 | drift +0.12% | fluid 229.4913 | solid 131.1428
  Impulse FP iterations last/mean/max 13/13.09/14
Step  1600/2000   80.0% | t 80.000 | ETA 1m 14s | step 0.18s | KE 360.5190 | drift +0.09% | fluid 229.3598 | solid 131.1591
  Impulse FP iterations last/mean/max 13/13.09/14
Step  1700/2000   85.0% | t 85.000 | ETA 56s | step 0.20s | KE 360.1267 | drift -0.02% | fluid 229.4138 | solid 130.7129
  Impulse FP iterations last/mean/max 14/13.09/14
Step  1800/2000   90.0% | t 90.000 | ETA 37s | step 0.18s | KE 360.3835 | drift +0.05% | fluid 229.7235 | solid 130.6600
  Impulse FP iterations last/mean/max 13/13.09/14
Step  1900/2000   95.0% | t 95.000 | ETA 18s | step 0.14s | KE 360.7994 | drift +0.17% | fluid 229.7012 | solid 131.0982
  Impulse FP iterations last/mean/max 13/13.09/14
Solver finished successfully - good job!
Results saved successfully.

================== Run summary ==================
  Bodies:            2
  Triangles / nodes: 256 / 516
  Timesteps:         2000  (dt = 0.05)
  Simulated time:    0 -> 100
  First-step setup:  0.294 s
  Mean time/step:    0.1820 s  (excl. first step)
  Total wall time:   6m 4s
  Impulse FP iters last/mean/max: 14 / 13.085 / 14
  Approx impulse solves/step:     13.085
  Impulse start cache hits/direct: 1999 / 1
  Impulse global drift P/H:       1.764951e-8 / 2.953774e-3
  Impulse per-body max drift P/H: 2.223610e-8 / 3.123673e-4
  CPU cores:         256 available, 8 Rayon worker thread(s)
  Started:           2026-06-24 01:46:02
  Finished:          2026-06-24 01:52:07
  Output file:       /work/e643/e643/shared/multi_ellip/studies/two_body_paper_sweeps/runs/spheroid_1_0p7_0p7/spheroid_1_0p7_0p7_rho0p3_E0p2_sep11_run05_impulse_noproj/multiple_body_complete.dat
================================================
