
================ Simulation setup ================
  Run label:         /work/e643/e643/shared/multi_ellip/studies/departing_sphericity_sweep/runs/spheroid_prolate/homogeneous/spheroid_prolate_homogeneous_eps1_rho1_E0p5_sep8_run01_impulse_noproj/
  Started:           2026-06-24 02:30:37
  Input file:        /work/e643/e643/shared/multi_ellip/studies/departing_sphericity_sweep/runs/spheroid_prolate/homogeneous/spheroid_prolate_homogeneous_eps1_rho1_E0p5_sep8_run01_impulse_noproj/input.txt
  Output file:       /work/e643/e643/shared/multi_ellip/studies/departing_sphericity_sweep/runs/spheroid_prolate/homogeneous/spheroid_prolate_homogeneous_eps1_rho1_E0p5_sep8_run01_impulse_noproj/multiple_body_complete.dat
  Bodies:            2
  Fluid density:     1
  Mesh:              ndiv 2 -> 256 triangles / 516 nodes
  Simulated time:    0 -> 100  (dt = 0.05, ~2000 steps)
  Output cadence:    every 1 step(s)
  Output rows:       ~2001
  Progress cadence:  every 100 step(s)
  CPU cores:         256 available, 8 Rayon worker thread(s)
  Strong coupling:   disabled
  Impulse scheme:    enabled
  Hamiltonian step:  disabled
  Hamiltonian midpt: disabled
  Variational step:  disabled
  Energy projection: disabled
  Projection particular metric: Euclidean
  Fluid KE gradient: disabled  (eps = 0.001, scale = 1, linear = 1, angular = 1)
  Fluid KE discrete gradient: disabled
  Impulse pair metric correction: disabled  (mode = pair discrete-gradient, cutoff = all pairs, inner/outer = 0/0, eps = 0.001, linear scale = 1, angular scale = 0)
  Impulse metric correction: disabled  (internal load constraint = disabled)
  Impulse variational defect probe: disabled
  Impulse quadratic pressure: disabled  (scale = 1)
  Added-mass stab:   disabled
  Exact BEM geometry: disabled
  Exact singular BEM: disabled
  Legacy singular SLP diagnostic: disabled
  Phi-dot blend:     0 (off)

  Solver guidance:
    - Strong coupling: use for stiff close-coupled runs; slower but more implicit.
    - Impulse scheme: use when impulse/momentum conservation or KE drift is the focus. Recommended.
    - Added-mass stab: use for higher mesh counts (ndiv > 3) to preserve stability - deprecated.
================================================
Solver starting - good luck!

Initial state:
  Body  1
    density:          1.000000
    shape axes ratio: (1.000000, 0.125000, 0.125000)
    initial KE ratio: 0.500000
    position:         (-4.000000, 0.000000, 0.000000)
    velocity:         (-4.888088, -10.912281, -10.083640)
    angular velocity: (-1.377750, 5.685495, 2.292458)
    orientation:      (w=0.077719, i=-0.505183, j=-0.174756, k=0.841553)
  Body  2
    density:          1.000000
    shape axes ratio: (1.000000, 0.125000, 0.125000)
    initial KE ratio: 0.500000
    position:         (4.000000, 0.000000, 0.000000)
    velocity:         (-3.132781, -6.993692, -6.462615)
    angular velocity: (-4.978020, -1.520128, 3.519509)
    orientation:      (w=0.102438, i=-0.476959, j=0.427798, k=-0.760924)

Preparing first step: implicit scheme, no bootstrap passes required.
First step may take longer than later steps.

First step completed in 0.389 s.

Step   100/2000    5.0% | t 5.000 | ETA 6m 9s | step 0.20s | KE 1966.1027 | drift -0.01% | fluid 911.9283 | solid 1054.1745
  Impulse FP iterations last/mean/max 14/13.38/16
Step   200/2000   10.0% | t 10.000 | ETA 5m 46s | step 0.20s | KE 1976.7402 | drift +0.53% | fluid 832.9938 | solid 1143.7464
  Impulse FP iterations last/mean/max 13/13.28/16
Step   300/2000   15.0% | t 15.000 | ETA 5m 27s | step 0.19s | KE 1962.5813 | drift -0.19% | fluid 977.2403 | solid 985.3410
  Impulse FP iterations last/mean/max 13/13.28/16
Step   400/2000   20.0% | t 20.000 | ETA 5m 7s | step 0.18s | KE 1962.1527 | drift -0.21% | fluid 837.2446 | solid 1124.9081
  Impulse FP iterations last/mean/max 13/13.26/16
Step   500/2000   25.0% | t 25.000 | ETA 4m 48s | step 0.19s | KE 1960.6122 | drift -0.29% | fluid 893.7969 | solid 1066.8153
  Impulse FP iterations last/mean/max 13/13.28/16
Step   600/2000   30.0% | t 30.000 | ETA 4m 29s | step 0.18s | KE 1970.0981 | drift +0.19% | fluid 940.8477 | solid 1029.2503
  Impulse FP iterations last/mean/max 13/13.26/16
Step   700/2000   35.0% | t 35.000 | ETA 4m 9s | step 0.21s | KE 1974.5084 | drift +0.42% | fluid 840.6678 | solid 1133.8406
  Impulse FP iterations last/mean/max 14/13.25/16
Step   800/2000   40.0% | t 40.000 | ETA 3m 50s | step 0.18s | KE 1960.8551 | drift -0.28% | fluid 929.7265 | solid 1031.1286
  Impulse FP iterations last/mean/max 13/13.24/16
Step   900/2000   45.0% | t 45.000 | ETA 3m 31s | step 0.21s | KE 1962.3958 | drift -0.20% | fluid 885.0538 | solid 1077.3420
  Impulse FP iterations last/mean/max 14/13.23/16
Step  1000/2000   50.0% | t 50.000 | ETA 3m 11s | step 0.19s | KE 1960.8092 | drift -0.28% | fluid 889.7327 | solid 1071.0765
  Impulse FP iterations last/mean/max 13/13.23/16
Step  1100/2000   55.0% | t 55.000 | ETA 2m 52s | step 0.20s | KE 1974.1023 | drift +0.40% | fluid 890.5660 | solid 1083.5364
  Impulse FP iterations last/mean/max 13/13.23/16
Step  1200/2000   60.0% | t 60.000 | ETA 2m 32s | step 0.20s | KE 1970.6844 | drift +0.22% | fluid 918.7090 | solid 1051.9754
  Impulse FP iterations last/mean/max 14/13.23/16
Step  1300/2000   65.0% | t 65.000 | ETA 2m 12s | step 0.18s | KE 1960.5086 | drift -0.29% | fluid 871.1913 | solid 1089.3173
  Impulse FP iterations last/mean/max 14/13.23/16
Step  1400/2000   70.0% | t 70.000 | ETA 1m 52s | step 0.16s | KE 1962.0917 | drift -0.21% | fluid 886.0893 | solid 1076.0023
  Impulse FP iterations last/mean/max 13/13.23/16
Step  1500/2000   75.0% | t 75.000 | ETA 1m 32s | step 0.15s | KE 1962.4134 | drift -0.20% | fluid 942.4744 | solid 1019.9391
  Impulse FP iterations last/mean/max 13/13.23/16
Step  1600/2000   80.0% | t 80.000 | ETA 1m 13s | step 0.14s | KE 1976.6341 | drift +0.53% | fluid 823.8587 | solid 1152.7754
  Impulse FP iterations last/mean/max 13/13.22/16
Step  1700/2000   85.0% | t 85.000 | ETA 54s | step 0.12s | KE 1966.4577 | drift +0.01% | fluid 957.5608 | solid 1008.8969
  Impulse FP iterations last/mean/max 12/13.22/16
Step  1800/2000   90.0% | t 90.000 | ETA 35s | step 0.12s | KE 1961.1365 | drift -0.26% | fluid 878.4247 | solid 1082.7117
  Impulse FP iterations last/mean/max 13/13.22/16
Step  1900/2000   95.0% | t 95.000 | ETA 17s | step 0.12s | KE 1961.3663 | drift -0.25% | fluid 849.8433 | solid 1111.5229
  Impulse FP iterations last/mean/max 13/13.23/16
Solver finished successfully - good job!
Results saved successfully.

================== Run summary ==================
  Bodies:            2
  Triangles / nodes: 256 / 516
  Timesteps:         2000  (dt = 0.05)
  Simulated time:    0 -> 100
  First-step setup:  0.389 s
  Mean time/step:    0.1725 s  (excl. first step)
  Total wall time:   5m 45s
  Impulse FP iters last/mean/max: 14 / 13.225 / 16
  Approx impulse solves/step:     13.225
  Impulse start cache hits/direct: 1999 / 1
  Impulse global drift P/H:       1.490813e-9 / 4.359211e-3
  Impulse per-body max drift P/H: 4.727448e-9 / 2.575114e-3
  CPU cores:         256 available, 8 Rayon worker thread(s)
  Started:           2026-06-24 02:30:37
  Finished:          2026-06-24 02:36:23
  Output file:       /work/e643/e643/shared/multi_ellip/studies/departing_sphericity_sweep/runs/spheroid_prolate/homogeneous/spheroid_prolate_homogeneous_eps1_rho1_E0p5_sep8_run01_impulse_noproj/multiple_body_complete.dat
================================================
