
================ Simulation setup ================
  Run label:         /work/e643/e643/shared/multi_ellip/studies/two_body_paper_sweeps/runs/spheroid_1_0p7_0p7/spheroid_1_0p7_0p7_rho0p03_E30_sep3_run04_impulse_noproj/
  Started:           2026-06-24 02:33:38
  Input file:        /work/e643/e643/shared/multi_ellip/studies/two_body_paper_sweeps/runs/spheroid_1_0p7_0p7/spheroid_1_0p7_0p7_rho0p03_E30_sep3_run04_impulse_noproj/input.txt
  Output file:       /work/e643/e643/shared/multi_ellip/studies/two_body_paper_sweeps/runs/spheroid_1_0p7_0p7/spheroid_1_0p7_0p7_rho0p03_E30_sep3_run04_impulse_noproj/multiple_body_complete.dat
  Bodies:            2
  Fluid density:     1
  Mesh:              ndiv 2 -> 256 triangles / 516 nodes
  Simulated time:    0 -> 100  (dt = 0.05, ~2000 steps)
  Output cadence:    every 1 step(s)
  Output rows:       ~2001
  Progress cadence:  every 100 step(s)
  CPU cores:         256 available, 8 Rayon worker thread(s)
  Strong coupling:   disabled
  Impulse scheme:    enabled
  Hamiltonian step:  disabled
  Hamiltonian midpt: disabled
  Variational step:  disabled
  Energy projection: disabled
  Projection particular metric: Euclidean
  Fluid KE gradient: disabled  (eps = 0.001, scale = 1, linear = 1, angular = 1)
  Fluid KE discrete gradient: disabled
  Impulse pair metric correction: disabled  (mode = pair discrete-gradient, cutoff = all pairs, inner/outer = 0/0, eps = 0.001, linear scale = 1, angular scale = 0)
  Impulse metric correction: disabled  (internal load constraint = disabled)
  Impulse variational defect probe: disabled
  Impulse quadratic pressure: disabled  (scale = 1)
  Added-mass stab:   disabled
  Exact BEM geometry: disabled
  Exact singular BEM: disabled
  Legacy singular SLP diagnostic: disabled
  Phi-dot blend:     0 (off)

  Solver guidance:
    - Strong coupling: use for stiff close-coupled runs; slower but more implicit.
    - Impulse scheme: use when impulse/momentum conservation or KE drift is the focus. Recommended.
    - Added-mass stab: use for higher mesh counts (ndiv > 3) to preserve stability - deprecated.
================================================
Solver starting - good luck!

Initial state:
  Body  1
    density:          0.030000
    shape axes ratio: (1.000000, 0.700000, 0.700000)
    initial KE ratio: 30.000000
    position:         (-1.500000, 0.000000, 0.000000)
    velocity:         (-0.113510, -0.589676, 0.361937)
    angular velocity: (5.047036, -2.413495, -2.860225)
    orientation:      (w=-0.824058, i=-0.122250, j=0.375180, k=0.406476)
  Body  2
    density:          0.030000
    shape axes ratio: (1.000000, 0.700000, 0.700000)
    initial KE ratio: 30.000000
    position:         (1.500000, 0.000000, 0.000000)
    velocity:         (-0.122345, -0.635573, 0.390108)
    angular velocity: (-3.307367, -4.705520, 2.529391)
    orientation:      (w=0.574262, i=-0.140916, j=-0.805964, k=0.028070)

Preparing first step: implicit scheme, no bootstrap passes required.
First step may take longer than later steps.

First step completed in 0.462 s.

Step   100/2000    5.0% | t 5.000 | ETA 8m 30s | step 0.26s | KE 8.8710 | drift -3.58% | fluid 6.7013 | solid 2.1696
  Impulse FP iterations last/mean/max 21/21.55/25
Step   200/2000   10.0% | t 10.000 | ETA 7m 54s | step 0.25s | KE 8.9563 | drift -2.65% | fluid 6.7272 | solid 2.2292
  Impulse FP iterations last/mean/max 21/21.16/25
Step   300/2000   15.0% | t 15.000 | ETA 7m 30s | step 0.27s | KE 9.1919 | drift -0.09% | fluid 6.8500 | solid 2.3420
  Impulse FP iterations last/mean/max 23/21.34/25
Step   400/2000   20.0% | t 20.000 | ETA 6m 57s | step 0.26s | KE 9.3878 | drift +2.04% | fluid 7.0093 | solid 2.3785
  Impulse FP iterations last/mean/max 22/21.23/25
Step   500/2000   25.0% | t 25.000 | ETA 6m 30s | step 0.26s | KE 9.5014 | drift +3.28% | fluid 7.0903 | solid 2.4112
  Impulse FP iterations last/mean/max 21/21.14/25
Step   600/2000   30.0% | t 30.000 | ETA 6m 4s | step 0.27s | KE 9.5171 | drift +3.45% | fluid 7.0931 | solid 2.4241
  Impulse FP iterations last/mean/max 22/21.04/25
Step   700/2000   35.0% | t 35.000 | ETA 5m 37s | step 0.25s | KE 9.5074 | drift +3.34% | fluid 7.0653 | solid 2.4421
  Impulse FP iterations last/mean/max 20/20.83/25
Step   800/2000   40.0% | t 40.000 | ETA 5m 5s | step 0.24s | KE 9.4968 | drift +3.23% | fluid 7.0530 | solid 2.4438
  Impulse FP iterations last/mean/max 22/20.66/25
Step   900/2000   45.0% | t 45.000 | ETA 4m 34s | step 0.22s | KE 9.4785 | drift +3.03% | fluid 7.0627 | solid 2.4157
  Impulse FP iterations last/mean/max 23/20.59/25
Step  1000/2000   50.0% | t 50.000 | ETA 4m 6s | step 0.23s | KE 9.4682 | drift +2.92% | fluid 7.0688 | solid 2.3994
  Impulse FP iterations last/mean/max 21/20.61/25
Step  1100/2000   55.0% | t 55.000 | ETA 3m 42s | step 0.26s | KE 9.4629 | drift +2.86% | fluid 7.0569 | solid 2.4060
  Impulse FP iterations last/mean/max 21/20.66/25
Step  1200/2000   60.0% | t 60.000 | ETA 3m 18s | step 0.22s | KE 9.4551 | drift +2.77% | fluid 7.0405 | solid 2.4146
  Impulse FP iterations last/mean/max 19/20.68/25
Step  1300/2000   65.0% | t 65.000 | ETA 2m 53s | step 0.21s | KE 9.4504 | drift +2.72% | fluid 7.0242 | solid 2.4262
  Impulse FP iterations last/mean/max 19/20.69/25
Step  1400/2000   70.0% | t 70.000 | ETA 2m 27s | step 0.26s | KE 9.4483 | drift +2.70% | fluid 7.0186 | solid 2.4298
  Impulse FP iterations last/mean/max 21/20.65/25
Step  1500/2000   75.0% | t 75.000 | ETA 2m 2s | step 0.22s | KE 9.4522 | drift +2.74% | fluid 7.0491 | solid 2.4031
  Impulse FP iterations last/mean/max 18/20.58/25
Step  1600/2000   80.0% | t 80.000 | ETA 1m 38s | step 0.23s | KE 9.4619 | drift +2.85% | fluid 7.0845 | solid 2.3774
  Impulse FP iterations last/mean/max 19/20.48/25
Step  1700/2000   85.0% | t 85.000 | ETA 1m 13s | step 0.20s | KE 9.4644 | drift +2.87% | fluid 7.0696 | solid 2.3948
  Impulse FP iterations last/mean/max 16/20.38/25
Step  1800/2000   90.0% | t 90.000 | ETA 48s | step 0.22s | KE 9.4627 | drift +2.86% | fluid 7.0326 | solid 2.4301
  Impulse FP iterations last/mean/max 19/20.32/25
Step  1900/2000   95.0% | t 95.000 | ETA 24s | step 0.20s | KE 9.4686 | drift +2.92% | fluid 7.0320 | solid 2.4365
  Impulse FP iterations last/mean/max 19/20.30/25
Solver finished successfully - good job!
Results saved successfully.

================== Run summary ==================
  Bodies:            2
  Triangles / nodes: 256 / 516
  Timesteps:         2000  (dt = 0.05)
  Simulated time:    0 -> 100
  First-step setup:  0.462 s
  Mean time/step:    0.2403 s  (excl. first step)
  Total wall time:   8m 0s
  Impulse FP iters last/mean/max: 21 / 20.317 / 25
  Approx impulse solves/step:     20.318
  Impulse start cache hits/direct: 1999 / 1
  Impulse global drift P/H:       9.677703e-8 / 3.785549e-3
  Impulse per-body max drift P/H: 1.564765e-7 / 5.069025e-3
  CPU cores:         256 available, 8 Rayon worker thread(s)
  Started:           2026-06-24 02:33:38
  Finished:          2026-06-24 02:41:39
  Output file:       /work/e643/e643/shared/multi_ellip/studies/two_body_paper_sweeps/runs/spheroid_1_0p7_0p7/spheroid_1_0p7_0p7_rho0p03_E30_sep3_run04_impulse_noproj/multiple_body_complete.dat
================================================
