
================ Simulation setup ================
  Run label:         /work/e643/e643/shared/multi_ellip/studies/two_body_paper_sweeps/runs/ellipsoid_1_0p8_0p6/ellipsoid_1_0p8_0p6_rho10_E30_sep5_run02_impulse_noproj/
  Started:           2026-06-22 19:26:45
  Input file:        /work/e643/e643/shared/multi_ellip/studies/two_body_paper_sweeps/runs/ellipsoid_1_0p8_0p6/ellipsoid_1_0p8_0p6_rho10_E30_sep5_run02_impulse_noproj/input.txt
  Output file:       /work/e643/e643/shared/multi_ellip/studies/two_body_paper_sweeps/runs/ellipsoid_1_0p8_0p6/ellipsoid_1_0p8_0p6_rho10_E30_sep5_run02_impulse_noproj/multiple_body_complete.dat
  Bodies:            2
  Fluid density:     1
  Mesh:              ndiv 2 -> 256 triangles / 516 nodes
  Simulated time:    0 -> 100  (dt = 0.05, ~2000 steps)
  Output cadence:    every 1 step(s)
  Output rows:       ~2001
  Progress cadence:  every 100 step(s)
  CPU cores:         256 available, 8 Rayon worker thread(s)
  Strong coupling:   disabled
  Impulse scheme:    enabled
  Hamiltonian step:  disabled
  Hamiltonian midpt: disabled
  Variational step:  disabled
  Energy projection: disabled
  Projection particular metric: Euclidean
  Fluid KE gradient: disabled  (eps = 0.001, scale = 1, linear = 1, angular = 1)
  Fluid KE discrete gradient: disabled
  Impulse pair metric correction: disabled  (mode = pair discrete-gradient, cutoff = all pairs, inner/outer = 0/0, eps = 0.001, linear scale = 1, angular scale = 0)
  Impulse metric correction: disabled  (internal load constraint = disabled)
  Impulse variational defect probe: disabled
  Impulse quadratic pressure: disabled  (scale = 1)
  Added-mass stab:   disabled
  Exact BEM geometry: disabled
  Exact singular BEM: disabled
  Legacy singular SLP diagnostic: disabled
  Phi-dot blend:     0 (off)

  Solver guidance:
    - Strong coupling: use for stiff close-coupled runs; slower but more implicit.
    - Impulse scheme: use when impulse/momentum conservation or KE drift is the focus. Recommended.
    - Added-mass stab: use for higher mesh counts (ndiv > 3) to preserve stability - deprecated.
================================================
Solver starting - good luck!

Initial state:
  Body  1
    density:          10.000000
    shape axes ratio: (1.000000, 0.800000, 0.600000)
    initial KE ratio: 30.000000
    position:         (-2.500000, 0.000000, 0.000000)
    velocity:         (-0.196422, 0.131560, 0.667845)
    angular velocity: (4.766667, -3.802849, -1.515137)
    orientation:      (w=0.577350, i=0.577350, j=0.577350, k=0.000000)
  Body  2
    density:          10.000000
    shape axes ratio: (1.000000, 0.800000, 0.600000)
    initial KE ratio: 30.000000
    position:         (2.500000, 0.000000, 0.000000)
    velocity:         (-0.221066, 0.148066, 0.751636)
    angular velocity: (3.099395, 0.693769, 5.421333)
    orientation:      (w=0.577350, i=-0.577350, j=0.000000, k=0.577350)

Preparing first step: implicit scheme, no bootstrap passes required.
First step may take longer than later steps.

First step completed in 0.245 s.

Step   100/2000    5.0% | t 5.000 | ETA 3m 8s | step 0.10s | KE 829.7415 | drift +0.03% | fluid 6.9188 | solid 822.8226
  Impulse FP iterations last/mean/max 8/7.37/8
Step   200/2000   10.0% | t 10.000 | ETA 2m 59s | step 0.10s | KE 830.0144 | drift +0.07% | fluid 4.6447 | solid 825.3698
  Impulse FP iterations last/mean/max 7/7.38/8
Step   300/2000   15.0% | t 15.000 | ETA 2m 50s | step 0.10s | KE 830.1682 | drift +0.08% | fluid 7.8164 | solid 822.3518
  Impulse FP iterations last/mean/max 7/7.39/8
Step   400/2000   20.0% | t 20.000 | ETA 2m 39s | step 0.09s | KE 830.2543 | drift +0.10% | fluid 8.6003 | solid 821.6540
  Impulse FP iterations last/mean/max 7/7.39/8
Step   500/2000   25.0% | t 25.000 | ETA 2m 30s | step 0.09s | KE 830.2418 | drift +0.09% | fluid 6.7381 | solid 823.5037
  Impulse FP iterations last/mean/max 7/7.39/8
Step   600/2000   30.0% | t 30.000 | ETA 2m 17s | step 0.09s | KE 830.1021 | drift +0.08% | fluid 4.6719 | solid 825.4302
  Impulse FP iterations last/mean/max 8/7.39/8
Step   700/2000   35.0% | t 35.000 | ETA 2m 6s | step 0.08s | KE 829.8951 | drift +0.05% | fluid 7.8456 | solid 822.0495
  Impulse FP iterations last/mean/max 7/7.40/8
Step   800/2000   40.0% | t 40.000 | ETA 1m 55s | step 0.10s | KE 829.5992 | drift +0.02% | fluid 8.7185 | solid 820.8807
  Impulse FP iterations last/mean/max 8/7.40/8
Step   900/2000   45.0% | t 45.000 | ETA 1m 45s | step 0.11s | KE 829.2611 | drift -0.02% | fluid 7.4146 | solid 821.8465
  Impulse FP iterations last/mean/max 8/7.40/8
Step  1000/2000   50.0% | t 50.000 | ETA 1m 36s | step 0.09s | KE 828.9504 | drift -0.06% | fluid 4.1510 | solid 824.7994
  Impulse FP iterations last/mean/max 7/7.39/8
Step  1100/2000   55.0% | t 55.000 | ETA 1m 27s | step 0.10s | KE 828.5939 | drift -0.10% | fluid 7.6983 | solid 820.8956
  Impulse FP iterations last/mean/max 7/7.40/8
Step  1200/2000   60.0% | t 60.000 | ETA 1m 17s | step 0.10s | KE 828.2897 | drift -0.14% | fluid 8.9452 | solid 819.3445
  Impulse FP iterations last/mean/max 7/7.40/8
Step  1300/2000   65.0% | t 65.000 | ETA 1m 8s | step 0.11s | KE 828.0239 | drift -0.17% | fluid 7.3554 | solid 820.6686
  Impulse FP iterations last/mean/max 8/7.40/8
Step  1400/2000   70.0% | t 70.000 | ETA 58s | step 0.12s | KE 827.7863 | drift -0.20% | fluid 4.5670 | solid 823.2192
  Impulse FP iterations last/mean/max 8/7.39/8
Step  1500/2000   75.0% | t 75.000 | ETA 48s | step 0.09s | KE 827.5976 | drift -0.22% | fluid 7.2092 | solid 820.3885
  Impulse FP iterations last/mean/max 7/7.39/8
Step  1600/2000   80.0% | t 80.000 | ETA 39s | step 0.10s | KE 827.4175 | drift -0.25% | fluid 8.6723 | solid 818.7451
  Impulse FP iterations last/mean/max 7/7.39/8
Step  1700/2000   85.0% | t 85.000 | ETA 29s | step 0.09s | KE 827.2725 | drift -0.26% | fluid 7.2917 | solid 819.9809
  Impulse FP iterations last/mean/max 7/7.39/8
Step  1800/2000   90.0% | t 90.000 | ETA 19s | step 0.10s | KE 827.1561 | drift -0.28% | fluid 4.3649 | solid 822.7912
  Impulse FP iterations last/mean/max 8/7.39/8
Step  1900/2000   95.0% | t 95.000 | ETA 9s | step 0.10s | KE 827.0522 | drift -0.29% | fluid 7.7378 | solid 819.3144
  Impulse FP iterations last/mean/max 7/7.39/8
Solver finished successfully - good job!
Results saved successfully.

================== Run summary ==================
  Bodies:            2
  Triangles / nodes: 256 / 516
  Timesteps:         2000  (dt = 0.05)
  Simulated time:    0 -> 100
  First-step setup:  0.245 s
  Mean time/step:    0.0981 s  (excl. first step)
  Total wall time:   3m 16s
  Impulse FP iters last/mean/max: 7 / 7.390 / 8
  Approx impulse solves/step:     7.390
  Impulse start cache hits/direct: 1999 / 1
  Impulse global drift P/H:       5.303498e-9 / 4.058468e-3
  Impulse per-body max drift P/H: 1.542018e-8 / 3.802146e-3
  CPU cores:         256 available, 8 Rayon worker thread(s)
  Started:           2026-06-22 19:26:45
  Finished:          2026-06-22 19:30:02
  Output file:       /work/e643/e643/shared/multi_ellip/studies/two_body_paper_sweeps/runs/ellipsoid_1_0p8_0p6/ellipsoid_1_0p8_0p6_rho10_E30_sep5_run02_impulse_noproj/multiple_body_complete.dat
================================================
