
================ Simulation setup ================
  Run label:         /work/e643/e643/shared/multi_ellip/studies/two_body_paper_sweeps/runs/spheroid_1_0p7_0p7/spheroid_1_0p7_0p7_rho0p1_E0p55_sep3_run02_impulse_noproj/
  Started:           2026-06-24 01:58:38
  Input file:        /work/e643/e643/shared/multi_ellip/studies/two_body_paper_sweeps/runs/spheroid_1_0p7_0p7/spheroid_1_0p7_0p7_rho0p1_E0p55_sep3_run02_impulse_noproj/input.txt
  Output file:       /work/e643/e643/shared/multi_ellip/studies/two_body_paper_sweeps/runs/spheroid_1_0p7_0p7/spheroid_1_0p7_0p7_rho0p1_E0p55_sep3_run02_impulse_noproj/multiple_body_complete.dat
  Bodies:            2
  Fluid density:     1
  Mesh:              ndiv 2 -> 256 triangles / 516 nodes
  Simulated time:    0 -> 100  (dt = 0.05, ~2000 steps)
  Output cadence:    every 1 step(s)
  Output rows:       ~2001
  Progress cadence:  every 100 step(s)
  CPU cores:         256 available, 8 Rayon worker thread(s)
  Strong coupling:   disabled
  Impulse scheme:    enabled
  Hamiltonian step:  disabled
  Hamiltonian midpt: disabled
  Variational step:  disabled
  Energy projection: disabled
  Projection particular metric: Euclidean
  Fluid KE gradient: disabled  (eps = 0.001, scale = 1, linear = 1, angular = 1)
  Fluid KE discrete gradient: disabled
  Impulse pair metric correction: disabled  (mode = pair discrete-gradient, cutoff = all pairs, inner/outer = 0/0, eps = 0.001, linear scale = 1, angular scale = 0)
  Impulse metric correction: disabled  (internal load constraint = disabled)
  Impulse variational defect probe: disabled
  Impulse quadratic pressure: disabled  (scale = 1)
  Added-mass stab:   disabled
  Exact BEM geometry: disabled
  Exact singular BEM: disabled
  Legacy singular SLP diagnostic: disabled
  Phi-dot blend:     0 (off)

  Solver guidance:
    - Strong coupling: use for stiff close-coupled runs; slower but more implicit.
    - Impulse scheme: use when impulse/momentum conservation or KE drift is the focus. Recommended.
    - Added-mass stab: use for higher mesh counts (ndiv > 3) to preserve stability - deprecated.
================================================
Solver starting - good luck!

Initial state:
  Body  1
    density:          0.100000
    shape axes ratio: (1.000000, 0.700000, 0.700000)
    initial KE ratio: 0.550000
    position:         (-1.500000, 0.000000, 0.000000)
    velocity:         (-4.922672, -2.926889, 1.192544)
    angular velocity: (-0.805464, 6.198423, 0.639683)
    orientation:      (w=0.222935, i=-0.174730, j=-0.941291, k=-0.183686)
  Body  2
    density:          0.100000
    shape axes ratio: (1.000000, 0.700000, 0.700000)
    initial KE ratio: 0.550000
    position:         (1.500000, 0.000000, 0.000000)
    velocity:         (-4.910394, -2.919589, 1.189570)
    angular velocity: (-1.104598, 2.924861, -5.450089)
    orientation:      (w=-0.447969, i=-0.809632, j=0.378636, k=-0.021313)

Preparing first step: implicit scheme, no bootstrap passes required.
First step may take longer than later steps.

First step completed in 0.385 s.

Step   100/2000    5.0% | t 5.000 | ETA 8m 26s | step 0.27s | KE 523.7102 | drift +406.30% | fluid 142.5852 | solid 381.1250
  Impulse FP iterations last/mean/max 19/18.98/23
Step   200/2000   10.0% | t 10.000 | ETA 7m 50s | step 0.25s | KE 505.7895 | drift +388.98% | fluid 144.6314 | solid 361.1581
  Impulse FP iterations last/mean/max 19/18.99/23
Step   300/2000   15.0% | t 15.000 | ETA 7m 22s | step 0.25s | KE 500.6109 | drift +383.97% | fluid 145.4845 | solid 355.1264
  Impulse FP iterations last/mean/max 19/19.02/23
Step   400/2000   20.0% | t 20.000 | ETA 6m 54s | step 0.24s | KE 499.6272 | drift +383.02% | fluid 144.7362 | solid 354.8911
  Impulse FP iterations last/mean/max 19/19.01/23
Step   500/2000   25.0% | t 25.000 | ETA 6m 27s | step 0.26s | KE 503.4878 | drift +386.75% | fluid 145.7948 | solid 357.6930
  Impulse FP iterations last/mean/max 19/19.01/23
Step   600/2000   30.0% | t 30.000 | ETA 6m 1s | step 0.25s | KE 513.9349 | drift +396.85% | fluid 148.6843 | solid 365.2506
  Impulse FP iterations last/mean/max 18/19.02/23
Step   700/2000   35.0% | t 35.000 | ETA 5m 34s | step 0.25s | KE 517.7849 | drift +400.58% | fluid 149.8841 | solid 367.9008
  Impulse FP iterations last/mean/max 18/19.03/23
Step   800/2000   40.0% | t 40.000 | ETA 5m 9s | step 0.26s | KE 509.8448 | drift +392.90% | fluid 146.9424 | solid 362.9025
  Impulse FP iterations last/mean/max 19/19.02/23
Step   900/2000   45.0% | t 45.000 | ETA 4m 43s | step 0.22s | KE 503.0227 | drift +386.30% | fluid 144.4790 | solid 358.5437
  Impulse FP iterations last/mean/max 19/19.03/23
Step  1000/2000   50.0% | t 50.000 | ETA 4m 17s | step 0.24s | KE 507.7770 | drift +390.90% | fluid 147.4428 | solid 360.3342
  Impulse FP iterations last/mean/max 19/19.03/23
Step  1100/2000   55.0% | t 55.000 | ETA 3m 51s | step 0.26s | KE 517.2820 | drift +400.09% | fluid 151.4746 | solid 365.8074
  Impulse FP iterations last/mean/max 19/19.03/23
Step  1200/2000   60.0% | t 60.000 | ETA 3m 25s | step 0.25s | KE 513.8434 | drift +396.76% | fluid 150.2841 | solid 363.5593
  Impulse FP iterations last/mean/max 21/19.03/23
Step  1300/2000   65.0% | t 65.000 | ETA 2m 58s | step 0.22s | KE 502.1005 | drift +385.41% | fluid 146.1844 | solid 355.9161
  Impulse FP iterations last/mean/max 18/19.03/23
Step  1400/2000   70.0% | t 70.000 | ETA 2m 31s | step 0.22s | KE 504.8938 | drift +388.11% | fluid 145.6498 | solid 359.2440
  Impulse FP iterations last/mean/max 20/19.03/23
Step  1500/2000   75.0% | t 75.000 | ETA 2m 5s | step 0.19s | KE 518.8461 | drift +401.60% | fluid 148.6313 | solid 370.2148
  Impulse FP iterations last/mean/max 19/19.03/23
Step  1600/2000   80.0% | t 80.000 | ETA 1m 39s | step 0.25s | KE 516.8739 | drift +399.69% | fluid 148.8462 | solid 368.0277
  Impulse FP iterations last/mean/max 19/19.03/23
Step  1700/2000   85.0% | t 85.000 | ETA 1m 13s | step 0.19s | KE 503.2605 | drift +386.53% | fluid 145.9202 | solid 357.3404
  Impulse FP iterations last/mean/max 19/19.03/23
Step  1800/2000   90.0% | t 90.000 | ETA 48s | step 0.17s | KE 503.1933 | drift +386.47% | fluid 146.5063 | solid 356.6870
  Impulse FP iterations last/mean/max 20/19.03/23
Step  1900/2000   95.0% | t 95.000 | ETA 23s | step 0.17s | KE 514.6804 | drift +397.57% | fluid 150.6238 | solid 364.0567
  Impulse FP iterations last/mean/max 19/19.02/23
Solver finished successfully - good job!
Results saved successfully.

================== Run summary ==================
  Bodies:            2
  Triangles / nodes: 256 / 516
  Timesteps:         2000  (dt = 0.05)
  Simulated time:    0 -> 100
  First-step setup:  0.385 s
  Mean time/step:    0.2349 s  (excl. first step)
  Total wall time:   7m 49s
  Impulse FP iters last/mean/max: 21 / 19.024 / 23
  Approx impulse solves/step:     19.024
  Impulse start cache hits/direct: 1999 / 1
  Impulse global drift P/H:       3.023771e-8 / 3.232958e1
  Impulse per-body max drift P/H: 6.558442e-8 / 3.995956e0
  CPU cores:         256 available, 8 Rayon worker thread(s)
  Started:           2026-06-24 01:58:38
  Finished:          2026-06-24 02:06:28
  Output file:       /work/e643/e643/shared/multi_ellip/studies/two_body_paper_sweeps/runs/spheroid_1_0p7_0p7/spheroid_1_0p7_0p7_rho0p1_E0p55_sep3_run02_impulse_noproj/multiple_body_complete.dat
================================================
