
================ Simulation setup ================
  Run label:         /work/e643/e643/shared/multi_ellip/studies/departing_sphericity_sweep/runs/triaxial/homogeneous/triaxial_homogeneous_eps0p0003_rho1_E0p5_sep8_run06_impulse_noproj/
  Started:           2026-06-24 02:23:18
  Input file:        /work/e643/e643/shared/multi_ellip/studies/departing_sphericity_sweep/runs/triaxial/homogeneous/triaxial_homogeneous_eps0p0003_rho1_E0p5_sep8_run06_impulse_noproj/input.txt
  Output file:       /work/e643/e643/shared/multi_ellip/studies/departing_sphericity_sweep/runs/triaxial/homogeneous/triaxial_homogeneous_eps0p0003_rho1_E0p5_sep8_run06_impulse_noproj/multiple_body_complete.dat
  Bodies:            2
  Fluid density:     1
  Mesh:              ndiv 2 -> 256 triangles / 516 nodes
  Simulated time:    0 -> 100  (dt = 0.05, ~2000 steps)
  Output cadence:    every 1 step(s)
  Output rows:       ~2001
  Progress cadence:  every 100 step(s)
  CPU cores:         256 available, 8 Rayon worker thread(s)
  Strong coupling:   disabled
  Impulse scheme:    enabled
  Hamiltonian step:  disabled
  Hamiltonian midpt: disabled
  Variational step:  disabled
  Energy projection: disabled
  Projection particular metric: Euclidean
  Fluid KE gradient: disabled  (eps = 0.001, scale = 1, linear = 1, angular = 1)
  Fluid KE discrete gradient: disabled
  Impulse pair metric correction: disabled  (mode = pair discrete-gradient, cutoff = all pairs, inner/outer = 0/0, eps = 0.001, linear scale = 1, angular scale = 0)
  Impulse metric correction: disabled  (internal load constraint = disabled)
  Impulse variational defect probe: disabled
  Impulse quadratic pressure: disabled  (scale = 1)
  Added-mass stab:   disabled
  Exact BEM geometry: disabled
  Exact singular BEM: disabled
  Legacy singular SLP diagnostic: disabled
  Phi-dot blend:     0 (off)

  Solver guidance:
    - Strong coupling: use for stiff close-coupled runs; slower but more implicit.
    - Impulse scheme: use when impulse/momentum conservation or KE drift is the focus. Recommended.
    - Added-mass stab: use for higher mesh counts (ndiv > 3) to preserve stability - deprecated.
================================================
Solver starting - good luck!

Initial state:
  Body  1
    density:          1.000000
    shape axes ratio: (1.000000, 0.999700, 0.999400)
    initial KE ratio: 0.500000
    position:         (-4.000000, 0.000000, 0.000000)
    velocity:         (-2.748026, 2.819052, 4.009545)
    angular velocity: (5.857891, 1.569468, 1.643259)
    orientation:      (w=-0.596760, i=0.037232, j=0.801196, k=0.023989)
  Body  2
    density:          1.000000
    shape axes ratio: (1.000000, 0.999700, 0.999400)
    initial KE ratio: 0.500000
    position:         (4.000000, 0.000000, 0.000000)
    velocity:         (-2.748222, 2.819253, 4.009831)
    angular velocity: (-5.002947, 1.506007, 3.490112)
    orientation:      (w=-0.386104, i=-0.614086, j=-0.032803, k=-0.687565)

Preparing first step: implicit scheme, no bootstrap passes required.
First step may take longer than later steps.

First step completed in 0.326 s.

Step   100/2000    5.0% | t 5.000 | ETA 2m 50s | step 0.09s | KE 272.6096 | drift +0.65% | fluid 72.4202 | solid 200.1893
  Impulse FP iterations last/mean/max 7/6.36/7
Step   200/2000   10.0% | t 10.000 | ETA 2m 43s | step 0.08s | KE 276.6710 | drift +2.15% | fluid 72.4230 | solid 204.2480
  Impulse FP iterations last/mean/max 6/6.43/7
Step   300/2000   15.0% | t 15.000 | ETA 2m 36s | step 0.08s | KE 283.0433 | drift +4.50% | fluid 72.4332 | solid 210.6101
  Impulse FP iterations last/mean/max 6/6.52/7
Step   400/2000   20.0% | t 20.000 | ETA 2m 27s | step 0.10s | KE 291.7377 | drift +7.71% | fluid 72.4281 | solid 219.3096
  Impulse FP iterations last/mean/max 7/6.57/7
Step   500/2000   25.0% | t 25.000 | ETA 2m 19s | step 0.08s | KE 302.7640 | drift +11.78% | fluid 72.4297 | solid 230.3343
  Impulse FP iterations last/mean/max 6/6.61/7
Step   600/2000   30.0% | t 30.000 | ETA 2m 8s | step 0.08s | KE 316.1335 | drift +16.72% | fluid 72.4201 | solid 243.7134
  Impulse FP iterations last/mean/max 7/6.65/7
Step   700/2000   35.0% | t 35.000 | ETA 1m 58s | step 0.09s | KE 331.8550 | drift +22.52% | fluid 72.4220 | solid 259.4330
  Impulse FP iterations last/mean/max 7/6.68/7
Step   800/2000   40.0% | t 40.000 | ETA 1m 49s | step 0.08s | KE 349.9400 | drift +29.20% | fluid 72.4275 | solid 277.5124
  Impulse FP iterations last/mean/max 6/6.71/7
Step   900/2000   45.0% | t 45.000 | ETA 1m 40s | step 0.10s | KE 370.3976 | drift +36.75% | fluid 72.4270 | solid 297.9706
  Impulse FP iterations last/mean/max 7/6.73/7
Step  1000/2000   50.0% | t 50.000 | ETA 1m 32s | step 0.09s | KE 393.2365 | drift +45.19% | fluid 72.4220 | solid 320.8145
  Impulse FP iterations last/mean/max 7/6.75/7
Step  1100/2000   55.0% | t 55.000 | ETA 1m 23s | step 0.09s | KE 418.4670 | drift +54.50% | fluid 72.4189 | solid 346.0482
  Impulse FP iterations last/mean/max 7/6.77/7
Step  1200/2000   60.0% | t 60.000 | ETA 1m 14s | step 0.09s | KE 446.0939 | drift +64.70% | fluid 72.4254 | solid 373.6684
  Impulse FP iterations last/mean/max 6/6.79/7
Step  1300/2000   65.0% | t 65.000 | ETA 1m 5s | step 0.10s | KE 476.1289 | drift +75.79% | fluid 72.4217 | solid 403.7072
  Impulse FP iterations last/mean/max 7/6.81/7
Step  1400/2000   70.0% | t 70.000 | ETA 56s | step 0.09s | KE 508.5767 | drift +87.77% | fluid 72.4259 | solid 436.1508
  Impulse FP iterations last/mean/max 7/6.82/7
Step  1500/2000   75.0% | t 75.000 | ETA 47s | step 0.10s | KE 543.4480 | drift +100.65% | fluid 72.4233 | solid 471.0247
  Impulse FP iterations last/mean/max 7/6.83/7
Step  1600/2000   80.0% | t 80.000 | ETA 37s | step 0.09s | KE 580.7479 | drift +114.42% | fluid 72.4238 | solid 508.3241
  Impulse FP iterations last/mean/max 7/6.84/7
Step  1700/2000   85.0% | t 85.000 | ETA 28s | step 0.08s | KE 620.4847 | drift +129.09% | fluid 72.4205 | solid 548.0643
  Impulse FP iterations last/mean/max 7/6.85/7
Step  1800/2000   90.0% | t 90.000 | ETA 18s | step 0.07s | KE 662.6588 | drift +144.66% | fluid 72.4276 | solid 590.2313
  Impulse FP iterations last/mean/max 7/6.86/7
Step  1900/2000   95.0% | t 95.000 | ETA 9s | step 0.06s | KE 707.2884 | drift +161.14% | fluid 72.4256 | solid 634.8628
  Impulse FP iterations last/mean/max 7/6.87/7
Solver finished successfully - good job!
Results saved successfully.

================== Run summary ==================
  Bodies:            2
  Triangles / nodes: 256 / 516
  Timesteps:         2000  (dt = 0.05)
  Simulated time:    0 -> 100
  First-step setup:  0.326 s
  Mean time/step:    0.0893 s  (excl. first step)
  Total wall time:   2m 58s
  Impulse FP iters last/mean/max: 7 / 6.875 / 7
  Approx impulse solves/step:     6.875
  Impulse start cache hits/direct: 1999 / 1
  Impulse global drift P/H:       9.236426e-9 / 8.404473e-2
  Impulse per-body max drift P/H: 1.616007e-8 / 4.823063e-3
  CPU cores:         256 available, 8 Rayon worker thread(s)
  Started:           2026-06-24 02:23:18
  Finished:          2026-06-24 02:26:19
  Output file:       /work/e643/e643/shared/multi_ellip/studies/departing_sphericity_sweep/runs/triaxial/homogeneous/triaxial_homogeneous_eps0p0003_rho1_E0p5_sep8_run06_impulse_noproj/multiple_body_complete.dat
================================================
