
================ Simulation setup ================
  Run label:         /work/e643/e643/shared/multi_ellip/studies/departing_sphericity_sweep/runs/triaxial/heterogeneous_aspherical/triaxial_heterogeneous_aspherical_eps0_rho1_E0p5_sep8_run05_impulse_noproj/
  Started:           2026-06-24 02:52:07
  Input file:        /work/e643/e643/shared/multi_ellip/studies/departing_sphericity_sweep/runs/triaxial/heterogeneous_aspherical/triaxial_heterogeneous_aspherical_eps0_rho1_E0p5_sep8_run05_impulse_noproj/input.txt
  Output file:       /work/e643/e643/shared/multi_ellip/studies/departing_sphericity_sweep/runs/triaxial/heterogeneous_aspherical/triaxial_heterogeneous_aspherical_eps0_rho1_E0p5_sep8_run05_impulse_noproj/multiple_body_complete.dat
  Bodies:            2
  Fluid density:     1
  Mesh:              ndiv 2 -> 256 triangles / 516 nodes
  Simulated time:    0 -> 100  (dt = 0.05, ~2000 steps)
  Output cadence:    every 1 step(s)
  Output rows:       ~2001
  Progress cadence:  every 100 step(s)
  CPU cores:         256 available, 8 Rayon worker thread(s)
  Strong coupling:   disabled
  Impulse scheme:    enabled
  Hamiltonian step:  disabled
  Hamiltonian midpt: disabled
  Variational step:  disabled
  Energy projection: disabled
  Projection particular metric: Euclidean
  Fluid KE gradient: disabled  (eps = 0.001, scale = 1, linear = 1, angular = 1)
  Fluid KE discrete gradient: disabled
  Impulse pair metric correction: disabled  (mode = pair discrete-gradient, cutoff = all pairs, inner/outer = 0/0, eps = 0.001, linear scale = 1, angular scale = 0)
  Impulse metric correction: disabled  (internal load constraint = disabled)
  Impulse variational defect probe: disabled
  Impulse quadratic pressure: disabled  (scale = 1)
  Added-mass stab:   disabled
  Exact BEM geometry: disabled
  Exact singular BEM: disabled
  Legacy singular SLP diagnostic: disabled
  Phi-dot blend:     0 (off)

  Solver guidance:
    - Strong coupling: use for stiff close-coupled runs; slower but more implicit.
    - Impulse scheme: use when impulse/momentum conservation or KE drift is the focus. Recommended.
    - Added-mass stab: use for higher mesh counts (ndiv > 3) to preserve stability - deprecated.
================================================
Solver starting - good luck!

Initial state:
  Body  1
    density:          1.000000
    shape axes ratio: (1.000000, 1.000000, 1.000000)
    initial KE ratio: 0.500000
    position:         (-4.000000, 0.000000, 0.000000)
    velocity:         (-3.185089, 0.022155, 4.630060)
    angular velocity: (-4.224166, -0.025551, 4.651256)
    orientation:      (w=-0.272559, i=-0.581086, j=-0.766601, k=0.019318)
  Body  2
    density:          1.000000
    shape axes ratio: (1.000000, 0.500000, 0.250000)
    initial KE ratio: 0.500000
    position:         (4.000000, 0.000000, 0.000000)
    velocity:         (-3.330157, 0.023164, 4.840941)
    angular velocity: (5.408407, 1.360569, -2.894201)
    orientation:      (w=-0.848651, i=-0.060889, j=-0.329077, k=0.409626)

Preparing first step: implicit scheme, no bootstrap passes required.
First step may take longer than later steps.

First step completed in 0.310 s.

Step   100/2000    5.0% | t 5.000 | ETA 5m 5s | step 0.16s | KE 349.7541 | drift -0.41% | fluid 122.0368 | solid 227.7173
  Impulse FP iterations last/mean/max 12/11.83/13
Step   200/2000   10.0% | t 10.000 | ETA 4m 41s | step 0.15s | KE 352.4092 | drift +0.35% | fluid 96.9565 | solid 255.4527
  Impulse FP iterations last/mean/max 11/11.61/13
Step   300/2000   15.0% | t 15.000 | ETA 4m 28s | step 0.16s | KE 350.1910 | drift -0.29% | fluid 109.5845 | solid 240.6065
  Impulse FP iterations last/mean/max 11/11.52/13
Step   400/2000   20.0% | t 20.000 | ETA 4m 16s | step 0.18s | KE 350.9343 | drift -0.07% | fluid 100.2761 | solid 250.6582
  Impulse FP iterations last/mean/max 12/11.47/13
Step   500/2000   25.0% | t 25.000 | ETA 4m 2s | step 0.16s | KE 352.3610 | drift +0.33% | fluid 111.6309 | solid 240.7301
  Impulse FP iterations last/mean/max 11/11.44/13
Step   600/2000   30.0% | t 30.000 | ETA 3m 48s | step 0.18s | KE 353.2963 | drift +0.60% | fluid 96.8959 | solid 256.4004
  Impulse FP iterations last/mean/max 12/11.45/13
Step   700/2000   35.0% | t 35.000 | ETA 3m 32s | step 0.18s | KE 351.7142 | drift +0.15% | fluid 87.6894 | solid 264.0248
  Impulse FP iterations last/mean/max 12/11.44/13
Step   800/2000   40.0% | t 40.000 | ETA 3m 16s | step 0.16s | KE 352.3374 | drift +0.33% | fluid 96.2757 | solid 256.0617
  Impulse FP iterations last/mean/max 11/11.41/13
Step   900/2000   45.0% | t 45.000 | ETA 3m 0s | step 0.16s | KE 351.8506 | drift +0.19% | fluid 96.8051 | solid 255.0455
  Impulse FP iterations last/mean/max 11/11.41/13
Step  1000/2000   50.0% | t 50.000 | ETA 2m 44s | step 0.18s | KE 351.0937 | drift -0.03% | fluid 123.4778 | solid 227.6159
  Impulse FP iterations last/mean/max 12/11.40/13
Step  1100/2000   55.0% | t 55.000 | ETA 2m 28s | step 0.18s | KE 353.8424 | drift +0.75% | fluid 95.5651 | solid 258.2773
  Impulse FP iterations last/mean/max 12/11.40/13
Step  1200/2000   60.0% | t 60.000 | ETA 2m 12s | step 0.16s | KE 355.1121 | drift +1.12% | fluid 113.5035 | solid 241.6086
  Impulse FP iterations last/mean/max 12/11.39/13
Step  1300/2000   65.0% | t 65.000 | ETA 1m 55s | step 0.15s | KE 350.1014 | drift -0.31% | fluid 121.3976 | solid 228.7038
  Impulse FP iterations last/mean/max 11/11.39/13
Step  1400/2000   70.0% | t 70.000 | ETA 1m 39s | step 0.18s | KE 351.5763 | drift +0.11% | fluid 124.7294 | solid 226.8468
  Impulse FP iterations last/mean/max 12/11.38/13
Step  1500/2000   75.0% | t 75.000 | ETA 1m 22s | step 0.17s | KE 352.2517 | drift +0.30% | fluid 82.7656 | solid 269.4861
  Impulse FP iterations last/mean/max 11/11.38/13
Step  1600/2000   80.0% | t 80.000 | ETA 1m 6s | step 0.17s | KE 354.3406 | drift +0.90% | fluid 108.8323 | solid 245.5083
  Impulse FP iterations last/mean/max 12/11.38/13
Step  1700/2000   85.0% | t 85.000 | ETA 49s | step 0.14s | KE 351.2195 | drift +0.01% | fluid 86.3874 | solid 264.8321
  Impulse FP iterations last/mean/max 10/11.38/13
Step  1800/2000   90.0% | t 90.000 | ETA 33s | step 0.16s | KE 352.4006 | drift +0.34% | fluid 103.0404 | solid 249.3602
  Impulse FP iterations last/mean/max 11/11.38/13
Step  1900/2000   95.0% | t 95.000 | ETA 16s | step 0.16s | KE 351.5773 | drift +0.11% | fluid 91.1376 | solid 260.4397
  Impulse FP iterations last/mean/max 11/11.38/13
Solver finished successfully - good job!
Results saved successfully.

================== Run summary ==================
  Bodies:            2
  Triangles / nodes: 256 / 516
  Timesteps:         2000  (dt = 0.05)
  Simulated time:    0 -> 100
  First-step setup:  0.310 s
  Mean time/step:    0.1659 s  (excl. first step)
  Total wall time:   5m 31s
  Impulse FP iters last/mean/max: 12 / 11.380 / 13
  Approx impulse solves/step:     11.381
  Impulse start cache hits/direct: 1999 / 1
  Impulse global drift P/H:       2.797547e-9 / 2.680551e-1
  Impulse per-body max drift P/H: 3.960433e-9 / 8.790858e-2
  CPU cores:         256 available, 8 Rayon worker thread(s)
  Started:           2026-06-24 02:52:07
  Finished:          2026-06-24 02:57:39
  Output file:       /work/e643/e643/shared/multi_ellip/studies/departing_sphericity_sweep/runs/triaxial/heterogeneous_aspherical/triaxial_heterogeneous_aspherical_eps0_rho1_E0p5_sep8_run05_impulse_noproj/multiple_body_complete.dat
================================================
