
================ Simulation setup ================
  Run label:         /work/e643/e643/shared/multi_ellip/studies/departing_sphericity_sweep/runs/triaxial/heterogeneous_sphere/triaxial_heterogeneous_sphere_eps0p3_rho1_E0p5_sep8_run03_impulse_noproj/
  Started:           2026-06-24 02:46:58
  Input file:        /work/e643/e643/shared/multi_ellip/studies/departing_sphericity_sweep/runs/triaxial/heterogeneous_sphere/triaxial_heterogeneous_sphere_eps0p3_rho1_E0p5_sep8_run03_impulse_noproj/input.txt
  Output file:       /work/e643/e643/shared/multi_ellip/studies/departing_sphericity_sweep/runs/triaxial/heterogeneous_sphere/triaxial_heterogeneous_sphere_eps0p3_rho1_E0p5_sep8_run03_impulse_noproj/multiple_body_complete.dat
  Bodies:            2
  Fluid density:     1
  Mesh:              ndiv 2 -> 256 triangles / 516 nodes
  Simulated time:    0 -> 100  (dt = 0.05, ~2000 steps)
  Output cadence:    every 1 step(s)
  Output rows:       ~2001
  Progress cadence:  every 100 step(s)
  CPU cores:         256 available, 8 Rayon worker thread(s)
  Strong coupling:   disabled
  Impulse scheme:    enabled
  Hamiltonian step:  disabled
  Hamiltonian midpt: disabled
  Variational step:  disabled
  Energy projection: disabled
  Projection particular metric: Euclidean
  Fluid KE gradient: disabled  (eps = 0.001, scale = 1, linear = 1, angular = 1)
  Fluid KE discrete gradient: disabled
  Impulse pair metric correction: disabled  (mode = pair discrete-gradient, cutoff = all pairs, inner/outer = 0/0, eps = 0.001, linear scale = 1, angular scale = 0)
  Impulse metric correction: disabled  (internal load constraint = disabled)
  Impulse variational defect probe: disabled
  Impulse quadratic pressure: disabled  (scale = 1)
  Added-mass stab:   disabled
  Exact BEM geometry: disabled
  Exact singular BEM: disabled
  Legacy singular SLP diagnostic: disabled
  Phi-dot blend:     0 (off)

  Solver guidance:
    - Strong coupling: use for stiff close-coupled runs; slower but more implicit.
    - Impulse scheme: use when impulse/momentum conservation or KE drift is the focus. Recommended.
    - Added-mass stab: use for higher mesh counts (ndiv > 3) to preserve stability - deprecated.
================================================
Solver starting - good luck!

Initial state:
  Body  1
    density:          1.000000
    shape axes ratio: (1.000000, 0.769231, 0.591716)
    initial KE ratio: 0.500000
    position:         (-4.000000, 0.000000, 0.000000)
    velocity:         (4.043525, 1.187062, -2.884005)
    angular velocity: (6.079119, 1.011059, -1.224947)
    orientation:      (w=0.023930, i=-0.228939, j=0.641029, k=-0.732186)
  Body  2
    density:          1.000000
    shape axes ratio: (1.000000, 1.000000, 1.000000)
    initial KE ratio: 0.500000
    position:         (4.000000, 0.000000, 0.000000)
    velocity:         (4.449987, 1.306388, -3.173910)
    angular velocity: (5.704436, -2.608554, -0.365060)
    orientation:      (w=0.219012, i=-0.675940, j=-0.701900, k=0.049754)

Preparing first step: implicit scheme, no bootstrap passes required.
First step may take longer than later steps.

First step completed in 0.326 s.

Step   100/2000    5.0% | t 5.000 | ETA 4m 31s | step 0.15s | KE 240.6187 | drift +1.20% | fluid 56.8934 | solid 183.7253
  Impulse FP iterations last/mean/max 10/9.83/10
Step   200/2000   10.0% | t 10.000 | ETA 4m 16s | step 0.14s | KE 241.1755 | drift +1.43% | fluid 63.9481 | solid 177.2273
  Impulse FP iterations last/mean/max 10/9.79/10
Step   300/2000   15.0% | t 15.000 | ETA 4m 1s | step 0.14s | KE 241.1856 | drift +1.44% | fluid 56.8716 | solid 184.3140
  Impulse FP iterations last/mean/max 10/9.77/10
Step   400/2000   20.0% | t 20.000 | ETA 3m 47s | step 0.13s | KE 241.3256 | drift +1.50% | fluid 56.8683 | solid 184.4573
  Impulse FP iterations last/mean/max 9/9.78/10
Step   500/2000   25.0% | t 25.000 | ETA 3m 30s | step 0.14s | KE 241.4303 | drift +1.54% | fluid 63.5608 | solid 177.8695
  Impulse FP iterations last/mean/max 10/9.78/10
Step   600/2000   30.0% | t 30.000 | ETA 3m 14s | step 0.12s | KE 241.3989 | drift +1.53% | fluid 56.8370 | solid 184.5619
  Impulse FP iterations last/mean/max 9/9.78/10
Step   700/2000   35.0% | t 35.000 | ETA 3m 0s | step 0.14s | KE 241.4303 | drift +1.54% | fluid 56.9004 | solid 184.5299
  Impulse FP iterations last/mean/max 9/9.78/10
Step   800/2000   40.0% | t 40.000 | ETA 2m 46s | step 0.14s | KE 241.5687 | drift +1.60% | fluid 62.8868 | solid 178.6818
  Impulse FP iterations last/mean/max 10/9.78/10
Step   900/2000   45.0% | t 45.000 | ETA 2m 33s | step 0.12s | KE 241.4401 | drift +1.54% | fluid 56.8067 | solid 184.6334
  Impulse FP iterations last/mean/max 9/9.78/10
Step  1000/2000   50.0% | t 50.000 | ETA 2m 19s | step 0.14s | KE 241.4584 | drift +1.55% | fluid 56.9748 | solid 184.4836
  Impulse FP iterations last/mean/max 10/9.78/10
Step  1100/2000   55.0% | t 55.000 | ETA 2m 5s | step 0.14s | KE 241.5668 | drift +1.60% | fluid 62.9788 | solid 178.5880
  Impulse FP iterations last/mean/max 10/9.78/10
Step  1200/2000   60.0% | t 60.000 | ETA 1m 51s | step 0.14s | KE 241.4481 | drift +1.55% | fluid 56.8781 | solid 184.5700
  Impulse FP iterations last/mean/max 10/9.77/10
Step  1300/2000   65.0% | t 65.000 | ETA 1m 37s | step 0.15s | KE 241.4681 | drift +1.56% | fluid 57.0584 | solid 184.4098
  Impulse FP iterations last/mean/max 10/9.78/10
Step  1400/2000   70.0% | t 70.000 | ETA 1m 23s | step 0.15s | KE 241.2678 | drift +1.47% | fluid 61.1808 | solid 180.0869
  Impulse FP iterations last/mean/max 10/9.78/10
Step  1500/2000   75.0% | t 75.000 | ETA 1m 9s | step 0.14s | KE 241.4087 | drift +1.53% | fluid 57.4333 | solid 183.9754
  Impulse FP iterations last/mean/max 9/9.78/10
Step  1600/2000   80.0% | t 80.000 | ETA 55s | step 0.14s | KE 241.1226 | drift +1.41% | fluid 66.5772 | solid 174.5454
  Impulse FP iterations last/mean/max 10/9.78/10
Step  1700/2000   85.0% | t 85.000 | ETA 41s | step 0.12s | KE 241.3956 | drift +1.52% | fluid 59.1554 | solid 182.2402
  Impulse FP iterations last/mean/max 10/9.77/10
Step  1800/2000   90.0% | t 90.000 | ETA 27s | step 0.14s | KE 241.4531 | drift +1.55% | fluid 57.0462 | solid 184.4070
  Impulse FP iterations last/mean/max 10/9.77/11
Step  1900/2000   95.0% | t 95.000 | ETA 13s | step 0.10s | KE 241.5320 | drift +1.58% | fluid 62.3395 | solid 179.1925
  Impulse FP iterations last/mean/max 10/9.77/11
Solver finished successfully - good job!
Results saved successfully.

================== Run summary ==================
  Bodies:            2
  Triangles / nodes: 256 / 516
  Timesteps:         2000  (dt = 0.05)
  Simulated time:    0 -> 100
  First-step setup:  0.326 s
  Mean time/step:    0.1339 s  (excl. first step)
  Total wall time:   4m 28s
  Impulse FP iters last/mean/max: 10 / 9.771 / 11
  Approx impulse solves/step:     9.771
  Impulse start cache hits/direct: 1999 / 1
  Impulse global drift P/H:       3.981471e-9 / 1.737706e-2
  Impulse per-body max drift P/H: 8.304596e-9 / 5.169155e-3
  CPU cores:         256 available, 8 Rayon worker thread(s)
  Started:           2026-06-24 02:46:58
  Finished:          2026-06-24 02:51:27
  Output file:       /work/e643/e643/shared/multi_ellip/studies/departing_sphericity_sweep/runs/triaxial/heterogeneous_sphere/triaxial_heterogeneous_sphere_eps0p3_rho1_E0p5_sep8_run03_impulse_noproj/multiple_body_complete.dat
================================================
