
================ Simulation setup ================
  Run label:         /work/e643/e643/shared/multi_ellip/studies/two_body_paper_sweeps/runs/ellipsoid_1_0p8_0p6/ellipsoid_1_0p8_0p6_rho4_E0p55_sep11_run04_impulse_noproj/
  Started:           2026-06-24 01:24:58
  Input file:        /work/e643/e643/shared/multi_ellip/studies/two_body_paper_sweeps/runs/ellipsoid_1_0p8_0p6/ellipsoid_1_0p8_0p6_rho4_E0p55_sep11_run04_impulse_noproj/input.txt
  Output file:       /work/e643/e643/shared/multi_ellip/studies/two_body_paper_sweeps/runs/ellipsoid_1_0p8_0p6/ellipsoid_1_0p8_0p6_rho4_E0p55_sep11_run04_impulse_noproj/multiple_body_complete.dat
  Bodies:            2
  Fluid density:     1
  Mesh:              ndiv 2 -> 256 triangles / 516 nodes
  Simulated time:    0 -> 100  (dt = 0.05, ~2000 steps)
  Output cadence:    every 1 step(s)
  Output rows:       ~2001
  Progress cadence:  every 100 step(s)
  CPU cores:         256 available, 8 Rayon worker thread(s)
  Strong coupling:   disabled
  Impulse scheme:    enabled
  Hamiltonian step:  disabled
  Hamiltonian midpt: disabled
  Variational step:  disabled
  Energy projection: disabled
  Projection particular metric: Euclidean
  Fluid KE gradient: disabled  (eps = 0.001, scale = 1, linear = 1, angular = 1)
  Fluid KE discrete gradient: disabled
  Impulse pair metric correction: disabled  (mode = pair discrete-gradient, cutoff = all pairs, inner/outer = 0/0, eps = 0.001, linear scale = 1, angular scale = 0)
  Impulse metric correction: disabled  (internal load constraint = disabled)
  Impulse variational defect probe: disabled
  Impulse quadratic pressure: disabled  (scale = 1)
  Added-mass stab:   disabled
  Exact BEM geometry: disabled
  Exact singular BEM: disabled
  Legacy singular SLP diagnostic: disabled
  Phi-dot blend:     0 (off)

  Solver guidance:
    - Strong coupling: use for stiff close-coupled runs; slower but more implicit.
    - Impulse scheme: use when impulse/momentum conservation or KE drift is the focus. Recommended.
    - Added-mass stab: use for higher mesh counts (ndiv > 3) to preserve stability - deprecated.
================================================
Solver starting - good luck!

Initial state:
  Body  1
    density:          4.000000
    shape axes ratio: (1.000000, 0.800000, 0.600000)
    initial KE ratio: 0.550000
    position:         (-5.500000, 0.000000, 0.000000)
    velocity:         (1.009286, 2.256076, 4.204491)
    angular velocity: (6.176665, -0.900430, -0.718649)
    orientation:      (w=0.190479, i=0.095327, j=-0.238960, k=0.947380)
  Body  2
    density:          4.000000
    shape axes ratio: (1.000000, 0.800000, 0.600000)
    initial KE ratio: 0.550000
    position:         (5.500000, 0.000000, 0.000000)
    velocity:         (1.067623, 2.386479, 4.447515)
    angular velocity: (5.003447, 3.709060, -0.828739)
    orientation:      (w=0.264225, i=0.344988, j=-0.124915, k=0.891945)

Preparing first step: implicit scheme, no bootstrap passes required.
First step may take longer than later steps.

First step completed in 0.364 s.

Step   100/2000    5.0% | t 5.000 | ETA 3m 55s | step 0.13s | KE 745.4032 | drift +0.20% | fluid 51.5896 | solid 693.8137
  Impulse FP iterations last/mean/max 9/8.69/9
Step   200/2000   10.0% | t 10.000 | ETA 3m 44s | step 0.13s | KE 746.5485 | drift +0.35% | fluid 77.0437 | solid 669.5048
  Impulse FP iterations last/mean/max 9/8.71/9
Step   300/2000   15.0% | t 15.000 | ETA 3m 31s | step 0.12s | KE 748.0148 | drift +0.55% | fluid 85.4835 | solid 662.5313
  Impulse FP iterations last/mean/max 9/8.71/9
Step   400/2000   20.0% | t 20.000 | ETA 3m 18s | step 0.13s | KE 750.3984 | drift +0.87% | fluid 64.0985 | solid 686.2999
  Impulse FP iterations last/mean/max 9/8.73/9
Step   500/2000   25.0% | t 25.000 | ETA 3m 6s | step 0.11s | KE 751.5323 | drift +1.02% | fluid 60.6312 | solid 690.9011
  Impulse FP iterations last/mean/max 8/8.73/9
Step   600/2000   30.0% | t 30.000 | ETA 2m 54s | step 0.13s | KE 751.5941 | drift +1.03% | fluid 71.6467 | solid 679.9474
  Impulse FP iterations last/mean/max 9/8.74/9
Step   700/2000   35.0% | t 35.000 | ETA 2m 41s | step 0.11s | KE 752.2020 | drift +1.11% | fluid 57.7551 | solid 694.4470
  Impulse FP iterations last/mean/max 8/8.74/9
Step   800/2000   40.0% | t 40.000 | ETA 2m 29s | step 0.13s | KE 751.7535 | drift +1.05% | fluid 63.4218 | solid 688.3316
  Impulse FP iterations last/mean/max 9/8.74/9
Step   900/2000   45.0% | t 45.000 | ETA 2m 17s | step 0.13s | KE 751.1554 | drift +0.97% | fluid 75.3862 | solid 675.7692
  Impulse FP iterations last/mean/max 9/8.75/9
Step  1000/2000   50.0% | t 50.000 | ETA 2m 4s | step 0.11s | KE 751.3294 | drift +0.99% | fluid 55.3755 | solid 695.9539
  Impulse FP iterations last/mean/max 8/8.76/9
Step  1100/2000   55.0% | t 55.000 | ETA 1m 52s | step 0.13s | KE 750.2749 | drift +0.85% | fluid 80.4371 | solid 669.8378
  Impulse FP iterations last/mean/max 9/8.76/9
Step  1200/2000   60.0% | t 60.000 | ETA 1m 39s | step 0.12s | KE 750.1755 | drift +0.84% | fluid 78.3867 | solid 671.7888
  Impulse FP iterations last/mean/max 9/8.76/9
Step  1300/2000   65.0% | t 65.000 | ETA 1m 27s | step 0.11s | KE 750.6324 | drift +0.90% | fluid 57.7067 | solid 692.9256
  Impulse FP iterations last/mean/max 8/8.76/9
Step  1400/2000   70.0% | t 70.000 | ETA 1m 14s | step 0.13s | KE 749.9120 | drift +0.80% | fluid 76.3355 | solid 673.5764
  Impulse FP iterations last/mean/max 9/8.77/9
Step  1500/2000   75.0% | t 75.000 | ETA 1m 2s | step 0.11s | KE 750.3452 | drift +0.86% | fluid 70.2093 | solid 680.1359
  Impulse FP iterations last/mean/max 8/8.77/9
Step  1600/2000   80.0% | t 80.000 | ETA 49s | step 0.12s | KE 750.5843 | drift +0.89% | fluid 63.8600 | solid 686.7243
  Impulse FP iterations last/mean/max 9/8.76/9
Step  1700/2000   85.0% | t 85.000 | ETA 37s | step 0.11s | KE 750.2307 | drift +0.85% | fluid 68.0011 | solid 682.2296
  Impulse FP iterations last/mean/max 9/8.76/9
Step  1800/2000   90.0% | t 90.000 | ETA 24s | step 0.12s | KE 750.5198 | drift +0.89% | fluid 66.7195 | solid 683.8003
  Impulse FP iterations last/mean/max 9/8.77/9
Step  1900/2000   95.0% | t 95.000 | ETA 12s | step 0.11s | KE 750.7708 | drift +0.92% | fluid 55.3913 | solid 695.3794
  Impulse FP iterations last/mean/max 8/8.76/9
Solver finished successfully - good job!
Results saved successfully.

================== Run summary ==================
  Bodies:            2
  Triangles / nodes: 256 / 516
  Timesteps:         2000  (dt = 0.05)
  Simulated time:    0 -> 100
  First-step setup:  0.364 s
  Mean time/step:    0.1221 s  (excl. first step)
  Total wall time:   4m 4s
  Impulse FP iters last/mean/max: 9 / 8.764 / 9
  Approx impulse solves/step:     8.765
  Impulse start cache hits/direct: 1999 / 1
  Impulse global drift P/H:       5.166286e-9 / 2.040996e-2
  Impulse per-body max drift P/H: 8.624375e-9 / 2.420070e-3
  CPU cores:         256 available, 8 Rayon worker thread(s)
  Started:           2026-06-24 01:24:58
  Finished:          2026-06-24 01:29:03
  Output file:       /work/e643/e643/shared/multi_ellip/studies/two_body_paper_sweeps/runs/ellipsoid_1_0p8_0p6/ellipsoid_1_0p8_0p6_rho4_E0p55_sep11_run04_impulse_noproj/multiple_body_complete.dat
================================================
