
================ Simulation setup ================
  Run label:         /work/e643/e643/shared/multi_ellip/studies/departing_sphericity_sweep/runs/triaxial/heterogeneous_sphere/triaxial_heterogeneous_sphere_eps0p01_rho1_E0p5_sep8_run07_impulse_noproj/
  Started:           2026-06-24 02:43:22
  Input file:        /work/e643/e643/shared/multi_ellip/studies/departing_sphericity_sweep/runs/triaxial/heterogeneous_sphere/triaxial_heterogeneous_sphere_eps0p01_rho1_E0p5_sep8_run07_impulse_noproj/input.txt
  Output file:       /work/e643/e643/shared/multi_ellip/studies/departing_sphericity_sweep/runs/triaxial/heterogeneous_sphere/triaxial_heterogeneous_sphere_eps0p01_rho1_E0p5_sep8_run07_impulse_noproj/multiple_body_complete.dat
  Bodies:            2
  Fluid density:     1
  Mesh:              ndiv 2 -> 256 triangles / 516 nodes
  Simulated time:    0 -> 100  (dt = 0.05, ~2000 steps)
  Output cadence:    every 1 step(s)
  Output rows:       ~2001
  Progress cadence:  every 100 step(s)
  CPU cores:         256 available, 8 Rayon worker thread(s)
  Strong coupling:   disabled
  Impulse scheme:    enabled
  Hamiltonian step:  disabled
  Hamiltonian midpt: disabled
  Variational step:  disabled
  Energy projection: disabled
  Projection particular metric: Euclidean
  Fluid KE gradient: disabled  (eps = 0.001, scale = 1, linear = 1, angular = 1)
  Fluid KE discrete gradient: disabled
  Impulse pair metric correction: disabled  (mode = pair discrete-gradient, cutoff = all pairs, inner/outer = 0/0, eps = 0.001, linear scale = 1, angular scale = 0)
  Impulse metric correction: disabled  (internal load constraint = disabled)
  Impulse variational defect probe: disabled
  Impulse quadratic pressure: disabled  (scale = 1)
  Added-mass stab:   disabled
  Exact BEM geometry: disabled
  Exact singular BEM: disabled
  Legacy singular SLP diagnostic: disabled
  Phi-dot blend:     0 (off)

  Solver guidance:
    - Strong coupling: use for stiff close-coupled runs; slower but more implicit.
    - Impulse scheme: use when impulse/momentum conservation or KE drift is the focus. Recommended.
    - Added-mass stab: use for higher mesh counts (ndiv > 3) to preserve stability - deprecated.
================================================
Solver starting - good luck!

Initial state:
  Body  1
    density:          1.000000
    shape axes ratio: (1.000000, 0.990099, 0.980296)
    initial KE ratio: 0.500000
    position:         (-4.000000, 0.000000, 0.000000)
    velocity:         (0.180410, 5.235862, -2.046751)
    angular velocity: (-2.838568, 4.151804, 3.766095)
    orientation:      (w=-0.719506, i=0.104127, j=0.653819, k=0.209736)
  Body  2
    density:          1.000000
    shape axes ratio: (1.000000, 1.000000, 1.000000)
    initial KE ratio: 0.500000
    position:         (4.000000, 0.000000, 0.000000)
    velocity:         (0.180258, 5.231453, -2.045028)
    angular velocity: (-2.435943, 5.790313, 0.129900)
    orientation:      (w=-0.352497, i=-0.666484, j=-0.485151, k=-0.442915)

Preparing first step: implicit scheme, no bootstrap passes required.
First step may take longer than later steps.

First step completed in 0.321 s.

Step   100/2000    5.0% | t 5.000 | ETA 3m 26s | step 0.10s | KE 270.5674 | drift -0.25% | fluid 72.5530 | solid 198.0144
  Impulse FP iterations last/mean/max 8/7.57/8
Step   200/2000   10.0% | t 10.000 | ETA 3m 14s | step 0.11s | KE 269.9867 | drift -0.47% | fluid 72.5341 | solid 197.4526
  Impulse FP iterations last/mean/max 8/7.59/8
Step   300/2000   15.0% | t 15.000 | ETA 3m 4s | step 0.12s | KE 269.4990 | drift -0.65% | fluid 72.5678 | solid 196.9311
  Impulse FP iterations last/mean/max 8/7.59/8
Step   400/2000   20.0% | t 20.000 | ETA 2m 53s | step 0.12s | KE 269.0930 | drift -0.80% | fluid 72.6946 | solid 196.3984
  Impulse FP iterations last/mean/max 8/7.59/8
Step   500/2000   25.0% | t 25.000 | ETA 2m 42s | step 0.10s | KE 268.7771 | drift -0.91% | fluid 72.7804 | solid 195.9968
  Impulse FP iterations last/mean/max 7/7.59/8
Step   600/2000   30.0% | t 30.000 | ETA 2m 31s | step 0.11s | KE 268.5652 | drift -0.99% | fluid 72.6359 | solid 195.9293
  Impulse FP iterations last/mean/max 8/7.59/8
Step   700/2000   35.0% | t 35.000 | ETA 2m 20s | step 0.11s | KE 268.4267 | drift -1.04% | fluid 72.4564 | solid 195.9703
  Impulse FP iterations last/mean/max 8/7.60/8
Step   800/2000   40.0% | t 40.000 | ETA 2m 10s | step 0.11s | KE 268.3223 | drift -1.08% | fluid 72.5314 | solid 195.7909
  Impulse FP iterations last/mean/max 8/7.61/8
Step   900/2000   45.0% | t 45.000 | ETA 1m 59s | step 0.11s | KE 268.2675 | drift -1.10% | fluid 72.6480 | solid 195.6196
  Impulse FP iterations last/mean/max 8/7.62/8
Step  1000/2000   50.0% | t 50.000 | ETA 1m 48s | step 0.11s | KE 268.2837 | drift -1.09% | fluid 72.5388 | solid 195.7449
  Impulse FP iterations last/mean/max 8/7.62/8
Step  1100/2000   55.0% | t 55.000 | ETA 1m 37s | step 0.10s | KE 268.3370 | drift -1.07% | fluid 72.4200 | solid 195.9170
  Impulse FP iterations last/mean/max 7/7.62/8
Step  1200/2000   60.0% | t 60.000 | ETA 1m 27s | step 0.12s | KE 268.3932 | drift -1.05% | fluid 72.5114 | solid 195.8819
  Impulse FP iterations last/mean/max 8/7.62/8
Step  1300/2000   65.0% | t 65.000 | ETA 1m 16s | step 0.10s | KE 268.4557 | drift -1.03% | fluid 72.6854 | solid 195.7703
  Impulse FP iterations last/mean/max 8/7.62/8
Step  1400/2000   70.0% | t 70.000 | ETA 1m 5s | step 0.11s | KE 268.5361 | drift -1.00% | fluid 72.7492 | solid 195.7869
  Impulse FP iterations last/mean/max 8/7.62/8
Step  1500/2000   75.0% | t 75.000 | ETA 54s | step 0.11s | KE 268.6259 | drift -0.97% | fluid 72.6997 | solid 195.9262
  Impulse FP iterations last/mean/max 8/7.62/8
Step  1600/2000   80.0% | t 80.000 | ETA 43s | step 0.12s | KE 268.7057 | drift -0.94% | fluid 72.6411 | solid 196.0645
  Impulse FP iterations last/mean/max 8/7.63/8
Step  1700/2000   85.0% | t 85.000 | ETA 32s | step 0.12s | KE 268.7635 | drift -0.92% | fluid 72.6287 | solid 196.1347
  Impulse FP iterations last/mean/max 8/7.63/8
Step  1800/2000   90.0% | t 90.000 | ETA 21s | step 0.10s | KE 268.7990 | drift -0.90% | fluid 72.6390 | solid 196.1600
  Impulse FP iterations last/mean/max 8/7.64/8
Step  1900/2000   95.0% | t 95.000 | ETA 10s | step 0.08s | KE 268.8178 | drift -0.90% | fluid 72.6207 | solid 196.1971
  Impulse FP iterations last/mean/max 8/7.65/8
Solver finished successfully - good job!
Results saved successfully.

================== Run summary ==================
  Bodies:            2
  Triangles / nodes: 256 / 516
  Timesteps:         2000  (dt = 0.05)
  Simulated time:    0 -> 100
  First-step setup:  0.321 s
  Mean time/step:    0.1059 s  (excl. first step)
  Total wall time:   3m 32s
  Impulse FP iters last/mean/max: 8 / 7.655 / 8
  Approx impulse solves/step:     7.656
  Impulse start cache hits/direct: 1999 / 1
  Impulse global drift P/H:       8.631555e-9 / 1.127972e-2
  Impulse per-body max drift P/H: 2.626081e-8 / 1.606485e-3
  CPU cores:         256 available, 8 Rayon worker thread(s)
  Started:           2026-06-24 02:43:22
  Finished:          2026-06-24 02:46:55
  Output file:       /work/e643/e643/shared/multi_ellip/studies/departing_sphericity_sweep/runs/triaxial/heterogeneous_sphere/triaxial_heterogeneous_sphere_eps0p01_rho1_E0p5_sep8_run07_impulse_noproj/multiple_body_complete.dat
================================================
