
================ Simulation setup ================
  Run label:         /work/e643/e643/shared/multi_ellip/studies/two_body_paper_sweeps/runs/ellipsoid_1_0p8_0p6/ellipsoid_1_0p8_0p6_rho1_E11_sep5_run05_impulse_noproj/
  Started:           2026-06-24 01:44:17
  Input file:        /work/e643/e643/shared/multi_ellip/studies/two_body_paper_sweeps/runs/ellipsoid_1_0p8_0p6/ellipsoid_1_0p8_0p6_rho1_E11_sep5_run05_impulse_noproj/input.txt
  Output file:       /work/e643/e643/shared/multi_ellip/studies/two_body_paper_sweeps/runs/ellipsoid_1_0p8_0p6/ellipsoid_1_0p8_0p6_rho1_E11_sep5_run05_impulse_noproj/multiple_body_complete.dat
  Bodies:            2
  Fluid density:     1
  Mesh:              ndiv 2 -> 256 triangles / 516 nodes
  Simulated time:    0 -> 100  (dt = 0.05, ~2000 steps)
  Output cadence:    every 1 step(s)
  Output rows:       ~2001
  Progress cadence:  every 100 step(s)
  CPU cores:         256 available, 8 Rayon worker thread(s)
  Strong coupling:   disabled
  Impulse scheme:    enabled
  Hamiltonian step:  disabled
  Hamiltonian midpt: disabled
  Variational step:  disabled
  Energy projection: disabled
  Projection particular metric: Euclidean
  Fluid KE gradient: disabled  (eps = 0.001, scale = 1, linear = 1, angular = 1)
  Fluid KE discrete gradient: disabled
  Impulse pair metric correction: disabled  (mode = pair discrete-gradient, cutoff = all pairs, inner/outer = 0/0, eps = 0.001, linear scale = 1, angular scale = 0)
  Impulse metric correction: disabled  (internal load constraint = disabled)
  Impulse variational defect probe: disabled
  Impulse quadratic pressure: disabled  (scale = 1)
  Added-mass stab:   disabled
  Exact BEM geometry: disabled
  Exact singular BEM: disabled
  Legacy singular SLP diagnostic: disabled
  Phi-dot blend:     0 (off)

  Solver guidance:
    - Strong coupling: use for stiff close-coupled runs; slower but more implicit.
    - Impulse scheme: use when impulse/momentum conservation or KE drift is the focus. Recommended.
    - Added-mass stab: use for higher mesh counts (ndiv > 3) to preserve stability - deprecated.
================================================
Solver starting - good luck!

Initial state:
  Body  1
    density:          1.000000
    shape axes ratio: (1.000000, 0.800000, 0.600000)
    initial KE ratio: 11.000000
    position:         (-2.500000, 0.000000, 0.000000)
    velocity:         (-0.943313, 0.435732, -0.405006)
    angular velocity: (-5.968182, 0.212889, 1.952920)
    orientation:      (w=-0.770328, i=-0.248576, j=-0.343782, k=0.476046)
  Body  2
    density:          1.000000
    shape axes ratio: (1.000000, 0.800000, 0.600000)
    initial KE ratio: 11.000000
    position:         (2.500000, 0.000000, 0.000000)
    velocity:         (-1.112926, 0.514079, -0.477828)
    angular velocity: (2.608069, 2.685535, -5.046216)
    orientation:      (w=0.205786, i=-0.359144, j=0.510021, k=0.754021)

Preparing first step: implicit scheme, no bootstrap passes required.
First step may take longer than later steps.

First step completed in 0.245 s.

Step   100/2000    5.0% | t 5.000 | ETA 4m 43s | step 0.16s | KE 90.1679 | drift -0.73% | fluid 10.5328 | solid 79.6351
  Impulse FP iterations last/mean/max 11/11.33/12
Step   200/2000   10.0% | t 10.000 | ETA 4m 40s | step 0.15s | KE 89.1531 | drift -1.85% | fluid 9.7585 | solid 79.3946
  Impulse FP iterations last/mean/max 11/11.33/12
Step   300/2000   15.0% | t 15.000 | ETA 4m 27s | step 0.18s | KE 88.3124 | drift -2.78% | fluid 10.1047 | solid 78.2078
  Impulse FP iterations last/mean/max 12/11.33/12
Step   400/2000   20.0% | t 20.000 | ETA 4m 13s | step 0.18s | KE 87.8929 | drift -3.24% | fluid 9.6408 | solid 78.2522
  Impulse FP iterations last/mean/max 12/11.31/12
Step   500/2000   25.0% | t 25.000 | ETA 3m 54s | step 0.14s | KE 87.6833 | drift -3.47% | fluid 12.9443 | solid 74.7390
  Impulse FP iterations last/mean/max 11/11.26/12
Step   600/2000   30.0% | t 30.000 | ETA 3m 36s | step 0.14s | KE 87.5444 | drift -3.62% | fluid 14.7989 | solid 72.7455
  Impulse FP iterations last/mean/max 10/11.23/12
Step   700/2000   35.0% | t 35.000 | ETA 3m 20s | step 0.16s | KE 87.5472 | drift -3.62% | fluid 11.7235 | solid 75.8237
  Impulse FP iterations last/mean/max 11/11.19/12
Step   800/2000   40.0% | t 40.000 | ETA 3m 5s | step 0.16s | KE 87.5077 | drift -3.66% | fluid 9.7888 | solid 77.7189
  Impulse FP iterations last/mean/max 11/11.16/12
Step   900/2000   45.0% | t 45.000 | ETA 2m 49s | step 0.16s | KE 87.4293 | drift -3.75% | fluid 13.1452 | solid 74.2840
  Impulse FP iterations last/mean/max 11/11.13/12
Step  1000/2000   50.0% | t 50.000 | ETA 2m 34s | step 0.15s | KE 87.4277 | drift -3.75% | fluid 13.4548 | solid 73.9729
  Impulse FP iterations last/mean/max 11/11.10/12
Step  1100/2000   55.0% | t 55.000 | ETA 2m 18s | step 0.16s | KE 87.4635 | drift -3.71% | fluid 9.6319 | solid 77.8315
  Impulse FP iterations last/mean/max 11/11.07/12
Step  1200/2000   60.0% | t 60.000 | ETA 2m 3s | step 0.16s | KE 87.4454 | drift -3.73% | fluid 7.8674 | solid 79.5780
  Impulse FP iterations last/mean/max 11/11.05/12
Step  1300/2000   65.0% | t 65.000 | ETA 1m 47s | step 0.16s | KE 87.4059 | drift -3.77% | fluid 10.7573 | solid 76.6486
  Impulse FP iterations last/mean/max 11/11.03/12
Step  1400/2000   70.0% | t 70.000 | ETA 1m 32s | step 0.16s | KE 87.4187 | drift -3.76% | fluid 11.2861 | solid 76.1325
  Impulse FP iterations last/mean/max 11/11.02/12
Step  1500/2000   75.0% | t 75.000 | ETA 1m 16s | step 0.14s | KE 87.4367 | drift -3.74% | fluid 7.7844 | solid 79.6523
  Impulse FP iterations last/mean/max 10/11.00/12
Step  1600/2000   80.0% | t 80.000 | ETA 1m 1s | step 0.16s | KE 87.4188 | drift -3.76% | fluid 6.6067 | solid 80.8121
  Impulse FP iterations last/mean/max 11/10.99/12
Step  1700/2000   85.0% | t 85.000 | ETA 46s | step 0.15s | KE 87.4115 | drift -3.77% | fluid 9.6851 | solid 77.7264
  Impulse FP iterations last/mean/max 11/10.98/12
Step  1800/2000   90.0% | t 90.000 | ETA 30s | step 0.15s | KE 87.4183 | drift -3.76% | fluid 10.5654 | solid 76.8529
  Impulse FP iterations last/mean/max 11/10.97/12
Step  1900/2000   95.0% | t 95.000 | ETA 15s | step 0.15s | KE 87.4144 | drift -3.76% | fluid 8.4734 | solid 78.9410
  Impulse FP iterations last/mean/max 10/10.96/12
Solver finished successfully - good job!
Results saved successfully.

================== Run summary ==================
  Bodies:            2
  Triangles / nodes: 256 / 516
  Timesteps:         2000  (dt = 0.05)
  Simulated time:    0 -> 100
  First-step setup:  0.245 s
  Mean time/step:    0.1527 s  (excl. first step)
  Total wall time:   5m 5s
  Impulse FP iters last/mean/max: 10 / 10.944 / 12
  Approx impulse solves/step:     10.945
  Impulse start cache hits/direct: 1999 / 1
  Impulse global drift P/H:       7.463675e-9 / 1.931390e-2
  Impulse per-body max drift P/H: 8.888264e-9 / 1.015146e-2
  CPU cores:         256 available, 8 Rayon worker thread(s)
  Started:           2026-06-24 01:44:17
  Finished:          2026-06-24 01:49:23
  Output file:       /work/e643/e643/shared/multi_ellip/studies/two_body_paper_sweeps/runs/ellipsoid_1_0p8_0p6/ellipsoid_1_0p8_0p6_rho1_E11_sep5_run05_impulse_noproj/multiple_body_complete.dat
================================================
