
================ Simulation setup ================
  Run label:         /work/e643/e643/shared/multi_ellip/studies/two_body_paper_sweeps/runs/spheroid_1_0p7_0p7/spheroid_1_0p7_0p7_rho0p1_E0p55_sep3_run05_impulse_noproj/
  Started:           2026-06-24 01:58:38
  Input file:        /work/e643/e643/shared/multi_ellip/studies/two_body_paper_sweeps/runs/spheroid_1_0p7_0p7/spheroid_1_0p7_0p7_rho0p1_E0p55_sep3_run05_impulse_noproj/input.txt
  Output file:       /work/e643/e643/shared/multi_ellip/studies/two_body_paper_sweeps/runs/spheroid_1_0p7_0p7/spheroid_1_0p7_0p7_rho0p1_E0p55_sep3_run05_impulse_noproj/multiple_body_complete.dat
  Bodies:            2
  Fluid density:     1
  Mesh:              ndiv 2 -> 256 triangles / 516 nodes
  Simulated time:    0 -> 100  (dt = 0.05, ~2000 steps)
  Output cadence:    every 1 step(s)
  Output rows:       ~2001
  Progress cadence:  every 100 step(s)
  CPU cores:         256 available, 8 Rayon worker thread(s)
  Strong coupling:   disabled
  Impulse scheme:    enabled
  Hamiltonian step:  disabled
  Hamiltonian midpt: disabled
  Variational step:  disabled
  Energy projection: disabled
  Projection particular metric: Euclidean
  Fluid KE gradient: disabled  (eps = 0.001, scale = 1, linear = 1, angular = 1)
  Fluid KE discrete gradient: disabled
  Impulse pair metric correction: disabled  (mode = pair discrete-gradient, cutoff = all pairs, inner/outer = 0/0, eps = 0.001, linear scale = 1, angular scale = 0)
  Impulse metric correction: disabled  (internal load constraint = disabled)
  Impulse variational defect probe: disabled
  Impulse quadratic pressure: disabled  (scale = 1)
  Added-mass stab:   disabled
  Exact BEM geometry: disabled
  Exact singular BEM: disabled
  Legacy singular SLP diagnostic: disabled
  Phi-dot blend:     0 (off)

  Solver guidance:
    - Strong coupling: use for stiff close-coupled runs; slower but more implicit.
    - Impulse scheme: use when impulse/momentum conservation or KE drift is the focus. Recommended.
    - Added-mass stab: use for higher mesh counts (ndiv > 3) to preserve stability - deprecated.
================================================
Solver starting - good luck!

Initial state:
  Body  1
    density:          0.100000
    shape axes ratio: (1.000000, 0.700000, 0.700000)
    initial KE ratio: 0.550000
    position:         (-1.500000, 0.000000, 0.000000)
    velocity:         (1.092903, 1.290674, -4.637752)
    angular velocity: (-5.802458, -2.166308, 1.056888)
    orientation:      (w=0.551348, i=-0.097134, j=0.638780, k=-0.527769)
  Body  2
    density:          0.100000
    shape axes ratio: (1.000000, 0.700000, 0.700000)
    initial KE ratio: 0.550000
    position:         (1.500000, 0.000000, 0.000000)
    velocity:         (1.297691, 1.532521, -5.506773)
    angular velocity: (-0.440706, 5.657971, -2.696582)
    orientation:      (w=-0.753287, i=0.063348, j=-0.151302, k=0.636909)

Preparing first step: implicit scheme, no bootstrap passes required.
First step may take longer than later steps.

First step completed in 0.373 s.

Step   100/2000    5.0% | t 5.000 | ETA 6m 54s | step 0.23s | KE 108.0492 | drift +1.46% | fluid 89.6278 | solid 18.4214
  Impulse FP iterations last/mean/max 16/15.74/19
Step   200/2000   10.0% | t 10.000 | ETA 6m 13s | step 0.18s | KE 108.0071 | drift +1.42% | fluid 89.7191 | solid 18.2881
  Impulse FP iterations last/mean/max 14/15.27/19
Step   300/2000   15.0% | t 15.000 | ETA 5m 48s | step 0.21s | KE 108.0134 | drift +1.42% | fluid 89.7101 | solid 18.3034
  Impulse FP iterations last/mean/max 15/15.11/19
Step   400/2000   20.0% | t 20.000 | ETA 5m 23s | step 0.20s | KE 108.0970 | drift +1.50% | fluid 89.4399 | solid 18.6571
  Impulse FP iterations last/mean/max 14/15.00/19
Step   500/2000   25.0% | t 25.000 | ETA 5m 1s | step 0.17s | KE 108.1238 | drift +1.53% | fluid 89.5693 | solid 18.5545
  Impulse FP iterations last/mean/max 14/14.94/19
Step   600/2000   30.0% | t 30.000 | ETA 4m 39s | step 0.19s | KE 107.9456 | drift +1.36% | fluid 89.5241 | solid 18.4215
  Impulse FP iterations last/mean/max 15/14.89/19
Step   700/2000   35.0% | t 35.000 | ETA 4m 19s | step 0.22s | KE 107.9156 | drift +1.33% | fluid 89.8093 | solid 18.1063
  Impulse FP iterations last/mean/max 16/14.87/19
Step   800/2000   40.0% | t 40.000 | ETA 3m 58s | step 0.17s | KE 108.0430 | drift +1.45% | fluid 89.3587 | solid 18.6843
  Impulse FP iterations last/mean/max 14/14.84/19
Step   900/2000   45.0% | t 45.000 | ETA 3m 38s | step 0.18s | KE 108.1638 | drift +1.57% | fluid 89.6409 | solid 18.5229
  Impulse FP iterations last/mean/max 14/14.82/19
Step  1000/2000   50.0% | t 50.000 | ETA 3m 18s | step 0.21s | KE 107.9337 | drift +1.35% | fluid 89.4249 | solid 18.5088
  Impulse FP iterations last/mean/max 15/14.81/19
Step  1100/2000   55.0% | t 55.000 | ETA 2m 57s | step 0.17s | KE 107.9258 | drift +1.34% | fluid 89.8814 | solid 18.0444
  Impulse FP iterations last/mean/max 14/14.80/19
Step  1200/2000   60.0% | t 60.000 | ETA 2m 37s | step 0.17s | KE 108.0118 | drift +1.42% | fluid 89.3106 | solid 18.7013
  Impulse FP iterations last/mean/max 14/14.79/19
Step  1300/2000   65.0% | t 65.000 | ETA 2m 17s | step 0.20s | KE 108.1623 | drift +1.56% | fluid 89.7028 | solid 18.4595
  Impulse FP iterations last/mean/max 14/14.78/19
Step  1400/2000   70.0% | t 70.000 | ETA 1m 58s | step 0.19s | KE 107.9710 | drift +1.38% | fluid 89.3367 | solid 18.6343
  Impulse FP iterations last/mean/max 14/14.78/19
Step  1500/2000   75.0% | t 75.000 | ETA 1m 38s | step 0.19s | KE 107.9165 | drift +1.33% | fluid 89.9242 | solid 17.9923
  Impulse FP iterations last/mean/max 15/14.76/19
Step  1600/2000   80.0% | t 80.000 | ETA 1m 18s | step 0.20s | KE 107.9715 | drift +1.39% | fluid 89.3150 | solid 18.6565
  Impulse FP iterations last/mean/max 15/14.75/19
Step  1700/2000   85.0% | t 85.000 | ETA 58s | step 0.18s | KE 108.1873 | drift +1.59% | fluid 89.7069 | solid 18.4804
  Impulse FP iterations last/mean/max 14/14.74/19
Step  1800/2000   90.0% | t 90.000 | ETA 39s | step 0.23s | KE 107.9777 | drift +1.39% | fluid 89.3117 | solid 18.6660
  Impulse FP iterations last/mean/max 18/14.74/19
Step  1900/2000   95.0% | t 95.000 | ETA 19s | step 0.18s | KE 107.9177 | drift +1.33% | fluid 89.9166 | solid 18.0012
  Impulse FP iterations last/mean/max 14/14.74/19
Solver finished successfully - good job!
Results saved successfully.

================== Run summary ==================
  Bodies:            2
  Triangles / nodes: 256 / 516
  Timesteps:         2000  (dt = 0.05)
  Simulated time:    0 -> 100
  First-step setup:  0.373 s
  Mean time/step:    0.1953 s  (excl. first step)
  Total wall time:   6m 30s
  Impulse FP iters last/mean/max: 14 / 14.737 / 19
  Approx impulse solves/step:     14.738
  Impulse start cache hits/direct: 1999 / 1
  Impulse global drift P/H:       8.980436e-8 / 6.256702e-2
  Impulse per-body max drift P/H: 1.771194e-7 / 9.845973e-3
  CPU cores:         256 available, 8 Rayon worker thread(s)
  Started:           2026-06-24 01:58:38
  Finished:          2026-06-24 02:05:09
  Output file:       /work/e643/e643/shared/multi_ellip/studies/two_body_paper_sweeps/runs/spheroid_1_0p7_0p7/spheroid_1_0p7_0p7_rho0p1_E0p55_sep3_run05_impulse_noproj/multiple_body_complete.dat
================================================
