
================ Simulation setup ================
  Run label:         /work/e643/e643/shared/multi_ellip/studies/two_body_paper_sweeps/runs/spheroid_1_0p7_0p7/spheroid_1_0p7_0p7_rho0p3_E0p2_sep8_run03_impulse_noproj/
  Started:           2026-06-24 01:39:27
  Input file:        /work/e643/e643/shared/multi_ellip/studies/two_body_paper_sweeps/runs/spheroid_1_0p7_0p7/spheroid_1_0p7_0p7_rho0p3_E0p2_sep8_run03_impulse_noproj/input.txt
  Output file:       /work/e643/e643/shared/multi_ellip/studies/two_body_paper_sweeps/runs/spheroid_1_0p7_0p7/spheroid_1_0p7_0p7_rho0p3_E0p2_sep8_run03_impulse_noproj/multiple_body_complete.dat
  Bodies:            2
  Fluid density:     1
  Mesh:              ndiv 2 -> 256 triangles / 516 nodes
  Simulated time:    0 -> 100  (dt = 0.05, ~2000 steps)
  Output cadence:    every 1 step(s)
  Output rows:       ~2001
  Progress cadence:  every 100 step(s)
  CPU cores:         256 available, 8 Rayon worker thread(s)
  Strong coupling:   disabled
  Impulse scheme:    enabled
  Hamiltonian step:  disabled
  Hamiltonian midpt: disabled
  Variational step:  disabled
  Energy projection: disabled
  Projection particular metric: Euclidean
  Fluid KE gradient: disabled  (eps = 0.001, scale = 1, linear = 1, angular = 1)
  Fluid KE discrete gradient: disabled
  Impulse pair metric correction: disabled  (mode = pair discrete-gradient, cutoff = all pairs, inner/outer = 0/0, eps = 0.001, linear scale = 1, angular scale = 0)
  Impulse metric correction: disabled  (internal load constraint = disabled)
  Impulse variational defect probe: disabled
  Impulse quadratic pressure: disabled  (scale = 1)
  Added-mass stab:   disabled
  Exact BEM geometry: disabled
  Exact singular BEM: disabled
  Legacy singular SLP diagnostic: disabled
  Phi-dot blend:     0 (off)

  Solver guidance:
    - Strong coupling: use for stiff close-coupled runs; slower but more implicit.
    - Impulse scheme: use when impulse/momentum conservation or KE drift is the focus. Recommended.
    - Added-mass stab: use for higher mesh counts (ndiv > 3) to preserve stability - deprecated.
================================================
Solver starting - good luck!

Initial state:
  Body  1
    density:          0.300000
    shape axes ratio: (1.000000, 0.700000, 0.700000)
    initial KE ratio: 0.200000
    position:         (-4.000000, 0.000000, 0.000000)
    velocity:         (-5.014737, -6.564566, 1.251422)
    angular velocity: (5.501408, -2.446754, 1.796197)
    orientation:      (w=0.415163, i=0.524222, j=0.358279, k=-0.651511)
  Body  2
    density:          0.300000
    shape axes ratio: (1.000000, 0.700000, 0.700000)
    initial KE ratio: 0.200000
    position:         (4.000000, 0.000000, 0.000000)
    velocity:         (-5.833050, -7.635783, 1.455632)
    angular velocity: (-0.485052, 5.712103, 2.571969)
    orientation:      (w=0.620854, i=0.655860, j=0.076792, k=0.422481)

Preparing first step: implicit scheme, no bootstrap passes required.
First step may take longer than later steps.

First step completed in 0.394 s.

Step   100/2000    5.0% | t 5.000 | ETA 6m 5s | step 0.19s | KE 319.6258 | drift +0.45% | fluid 193.8020 | solid 125.8238
  Impulse FP iterations last/mean/max 14/13.38/15
Step   200/2000   10.0% | t 10.000 | ETA 5m 45s | step 0.19s | KE 317.8494 | drift -0.11% | fluid 193.1076 | solid 124.7418
  Impulse FP iterations last/mean/max 13/13.37/15
Step   300/2000   15.0% | t 15.000 | ETA 5m 24s | step 0.20s | KE 319.1458 | drift +0.30% | fluid 193.9448 | solid 125.2010
  Impulse FP iterations last/mean/max 14/13.34/15
Step   400/2000   20.0% | t 20.000 | ETA 5m 4s | step 0.20s | KE 319.3507 | drift +0.37% | fluid 193.6132 | solid 125.7374
  Impulse FP iterations last/mean/max 14/13.34/15
Step   500/2000   25.0% | t 25.000 | ETA 4m 46s | step 0.19s | KE 317.7986 | drift -0.12% | fluid 193.1601 | solid 124.6386
  Impulse FP iterations last/mean/max 13/13.33/15
Step   600/2000   30.0% | t 30.000 | ETA 4m 26s | step 0.19s | KE 319.1678 | drift +0.31% | fluid 193.9862 | solid 125.1817
  Impulse FP iterations last/mean/max 13/13.31/15
Step   700/2000   35.0% | t 35.000 | ETA 4m 7s | step 0.20s | KE 318.9753 | drift +0.25% | fluid 193.4026 | solid 125.5727
  Impulse FP iterations last/mean/max 14/13.32/15
Step   800/2000   40.0% | t 40.000 | ETA 3m 48s | step 0.21s | KE 318.0296 | drift -0.05% | fluid 193.3023 | solid 124.7273
  Impulse FP iterations last/mean/max 14/13.31/15
Step   900/2000   45.0% | t 45.000 | ETA 3m 29s | step 0.19s | KE 318.8901 | drift +0.22% | fluid 193.8299 | solid 125.0601
  Impulse FP iterations last/mean/max 14/13.31/15
Step  1000/2000   50.0% | t 50.000 | ETA 3m 10s | step 0.17s | KE 318.7638 | drift +0.18% | fluid 193.4648 | solid 125.2991
  Impulse FP iterations last/mean/max 12/13.31/15
Step  1100/2000   55.0% | t 55.000 | ETA 2m 51s | step 0.17s | KE 318.2253 | drift +0.01% | fluid 193.1587 | solid 125.0666
  Impulse FP iterations last/mean/max 12/13.31/15
Step  1200/2000   60.0% | t 60.000 | ETA 2m 32s | step 0.18s | KE 319.0681 | drift +0.28% | fluid 194.0792 | solid 124.9889
  Impulse FP iterations last/mean/max 13/13.30/15
Step  1300/2000   65.0% | t 65.000 | ETA 2m 13s | step 0.21s | KE 318.1253 | drift -0.02% | fluid 193.1440 | solid 124.9814
  Impulse FP iterations last/mean/max 14/13.31/15
Step  1400/2000   70.0% | t 70.000 | ETA 1m 52s | step 0.13s | KE 318.9532 | drift +0.24% | fluid 193.4683 | solid 125.4849
  Impulse FP iterations last/mean/max 13/13.31/15
Step  1500/2000   75.0% | t 75.000 | ETA 1m 31s | step 0.11s | KE 319.0199 | drift +0.26% | fluid 193.9646 | solid 125.0553
  Impulse FP iterations last/mean/max 13/13.31/15
Step  1600/2000   80.0% | t 80.000 | ETA 1m 11s | step 0.11s | KE 317.8378 | drift -0.11% | fluid 193.1415 | solid 124.6963
  Impulse FP iterations last/mean/max 13/13.31/15
Step  1700/2000   85.0% | t 85.000 | ETA 52s | step 0.11s | KE 319.3913 | drift +0.38% | fluid 193.6343 | solid 125.7570
  Impulse FP iterations last/mean/max 13/13.30/15
Step  1800/2000   90.0% | t 90.000 | ETA 34s | step 0.10s | KE 318.9429 | drift +0.24% | fluid 193.8061 | solid 125.1368
  Impulse FP iterations last/mean/max 13/13.30/15
Step  1900/2000   95.0% | t 95.000 | ETA 16s | step 0.10s | KE 317.8589 | drift -0.10% | fluid 193.3028 | solid 124.5561
  Impulse FP iterations last/mean/max 13/13.31/15
Solver finished successfully - good job!
Results saved successfully.

================== Run summary ==================
  Bodies:            2
  Triangles / nodes: 256 / 516
  Timesteps:         2000  (dt = 0.05)
  Simulated time:    0 -> 100
  First-step setup:  0.394 s
  Mean time/step:    0.1652 s  (excl. first step)
  Total wall time:   5m 30s
  Impulse FP iters last/mean/max: 13 / 13.304 / 15
  Approx impulse solves/step:     13.305
  Impulse start cache hits/direct: 1999 / 1
  Impulse global drift P/H:       3.641258e-8 / 4.739418e-3
  Impulse per-body max drift P/H: 6.200662e-8 / 8.543544e-4
  CPU cores:         256 available, 8 Rayon worker thread(s)
  Started:           2026-06-24 01:39:27
  Finished:          2026-06-24 01:44:58
  Output file:       /work/e643/e643/shared/multi_ellip/studies/two_body_paper_sweeps/runs/spheroid_1_0p7_0p7/spheroid_1_0p7_0p7_rho0p3_E0p2_sep8_run03_impulse_noproj/multiple_body_complete.dat
================================================
