
================ Simulation setup ================
  Run label:         /work/e643/e643/shared/multi_ellip/studies/departing_sphericity_sweep/runs/triaxial/homogeneous/triaxial_homogeneous_eps0p01_rho1_E0p5_sep8_run08_impulse_noproj/
  Started:           2026-06-24 02:26:27
  Input file:        /work/e643/e643/shared/multi_ellip/studies/departing_sphericity_sweep/runs/triaxial/homogeneous/triaxial_homogeneous_eps0p01_rho1_E0p5_sep8_run08_impulse_noproj/input.txt
  Output file:       /work/e643/e643/shared/multi_ellip/studies/departing_sphericity_sweep/runs/triaxial/homogeneous/triaxial_homogeneous_eps0p01_rho1_E0p5_sep8_run08_impulse_noproj/multiple_body_complete.dat
  Bodies:            2
  Fluid density:     1
  Mesh:              ndiv 2 -> 256 triangles / 516 nodes
  Simulated time:    0 -> 100  (dt = 0.05, ~2000 steps)
  Output cadence:    every 1 step(s)
  Output rows:       ~2001
  Progress cadence:  every 100 step(s)
  CPU cores:         256 available, 8 Rayon worker thread(s)
  Strong coupling:   disabled
  Impulse scheme:    enabled
  Hamiltonian step:  disabled
  Hamiltonian midpt: disabled
  Variational step:  disabled
  Energy projection: disabled
  Projection particular metric: Euclidean
  Fluid KE gradient: disabled  (eps = 0.001, scale = 1, linear = 1, angular = 1)
  Fluid KE discrete gradient: disabled
  Impulse pair metric correction: disabled  (mode = pair discrete-gradient, cutoff = all pairs, inner/outer = 0/0, eps = 0.001, linear scale = 1, angular scale = 0)
  Impulse metric correction: disabled  (internal load constraint = disabled)
  Impulse variational defect probe: disabled
  Impulse quadratic pressure: disabled  (scale = 1)
  Added-mass stab:   disabled
  Exact BEM geometry: disabled
  Exact singular BEM: disabled
  Legacy singular SLP diagnostic: disabled
  Phi-dot blend:     0 (off)

  Solver guidance:
    - Strong coupling: use for stiff close-coupled runs; slower but more implicit.
    - Impulse scheme: use when impulse/momentum conservation or KE drift is the focus. Recommended.
    - Added-mass stab: use for higher mesh counts (ndiv > 3) to preserve stability - deprecated.
================================================
Solver starting - good luck!

Initial state:
  Body  1
    density:          1.000000
    shape axes ratio: (1.000000, 0.990099, 0.980296)
    initial KE ratio: 0.500000
    position:         (-4.000000, 0.000000, 0.000000)
    velocity:         (4.166605, -3.598509, -1.196716)
    angular velocity: (2.190012, -3.221255, -4.930089)
    orientation:      (w=0.386514, i=-0.116832, j=0.591197, k=0.698172)
  Body  2
    density:          1.000000
    shape axes ratio: (1.000000, 0.990099, 0.980296)
    initial KE ratio: 0.500000
    position:         (4.000000, 0.000000, 0.000000)
    velocity:         (4.161731, -3.594300, -1.195317)
    angular velocity: (-1.577314, -4.945180, -3.540577)
    orientation:      (w=0.797467, i=0.240049, j=0.406332, k=0.375923)

Preparing first step: implicit scheme, no bootstrap passes required.
First step may take longer than later steps.

First step completed in 0.323 s.

Step   100/2000    5.0% | t 5.000 | ETA 3m 29s | step 0.12s | KE 264.9625 | drift -2.47% | fluid 72.5992 | solid 192.3633
  Impulse FP iterations last/mean/max 8/7.86/8
Step   200/2000   10.0% | t 10.000 | ETA 3m 19s | step 0.12s | KE 262.7387 | drift -3.29% | fluid 72.5346 | solid 190.2041
  Impulse FP iterations last/mean/max 8/7.87/8
Step   300/2000   15.0% | t 15.000 | ETA 3m 9s | step 0.11s | KE 264.6310 | drift -2.59% | fluid 72.4886 | solid 192.1424
  Impulse FP iterations last/mean/max 8/7.89/8
Step   400/2000   20.0% | t 20.000 | ETA 2m 58s | step 0.12s | KE 270.0507 | drift -0.60% | fluid 72.6552 | solid 197.3955
  Impulse FP iterations last/mean/max 8/7.89/8
Step   500/2000   25.0% | t 25.000 | ETA 2m 47s | step 0.10s | KE 278.1080 | drift +2.37% | fluid 72.4756 | solid 205.6324
  Impulse FP iterations last/mean/max 7/7.88/8
Step   600/2000   30.0% | t 30.000 | ETA 2m 36s | step 0.12s | KE 287.9544 | drift +5.99% | fluid 72.8099 | solid 215.1446
  Impulse FP iterations last/mean/max 8/7.87/8
Step   700/2000   35.0% | t 35.000 | ETA 2m 24s | step 0.11s | KE 299.0247 | drift +10.07% | fluid 72.4297 | solid 226.5950
  Impulse FP iterations last/mean/max 8/7.87/8
Step   800/2000   40.0% | t 40.000 | ETA 2m 13s | step 0.10s | KE 310.7081 | drift +14.37% | fluid 72.6229 | solid 238.0853
  Impulse FP iterations last/mean/max 7/7.86/8
Step   900/2000   45.0% | t 45.000 | ETA 2m 2s | step 0.10s | KE 322.6983 | drift +18.78% | fluid 72.5548 | solid 250.1435
  Impulse FP iterations last/mean/max 8/7.84/8
Step  1000/2000   50.0% | t 50.000 | ETA 1m 51s | step 0.11s | KE 334.6716 | drift +23.19% | fluid 72.5260 | solid 262.1457
  Impulse FP iterations last/mean/max 8/7.83/8
Step  1100/2000   55.0% | t 55.000 | ETA 1m 39s | step 0.11s | KE 346.4036 | drift +27.51% | fluid 72.8750 | solid 273.5286
  Impulse FP iterations last/mean/max 8/7.80/8
Step  1200/2000   60.0% | t 60.000 | ETA 1m 28s | step 0.11s | KE 357.8817 | drift +31.73% | fluid 72.7101 | solid 285.1715
  Impulse FP iterations last/mean/max 8/7.78/8
Step  1300/2000   65.0% | t 65.000 | ETA 1m 17s | step 0.10s | KE 368.9816 | drift +35.82% | fluid 72.6477 | solid 296.3338
  Impulse FP iterations last/mean/max 7/7.76/8
Step  1400/2000   70.0% | t 70.000 | ETA 1m 5s | step 0.10s | KE 379.5782 | drift +39.72% | fluid 72.6554 | solid 306.9228
  Impulse FP iterations last/mean/max 7/7.73/8
Step  1500/2000   75.0% | t 75.000 | ETA 54s | step 0.10s | KE 389.6422 | drift +43.42% | fluid 72.6697 | solid 316.9725
  Impulse FP iterations last/mean/max 7/7.69/8
Step  1600/2000   80.0% | t 80.000 | ETA 43s | step 0.11s | KE 399.2017 | drift +46.94% | fluid 72.6708 | solid 326.5309
  Impulse FP iterations last/mean/max 8/7.66/8
Step  1700/2000   85.0% | t 85.000 | ETA 32s | step 0.12s | KE 408.1688 | drift +50.24% | fluid 72.8538 | solid 335.3150
  Impulse FP iterations last/mean/max 8/7.64/8
Step  1800/2000   90.0% | t 90.000 | ETA 21s | step 0.09s | KE 416.6148 | drift +53.35% | fluid 72.7155 | solid 343.8993
  Impulse FP iterations last/mean/max 7/7.62/8
Step  1900/2000   95.0% | t 95.000 | ETA 10s | step 0.09s | KE 424.4753 | drift +56.25% | fluid 72.7376 | solid 351.7378
  Impulse FP iterations last/mean/max 7/7.60/8
Solver finished successfully - good job!
Results saved successfully.

================== Run summary ==================
  Bodies:            2
  Triangles / nodes: 256 / 516
  Timesteps:         2000  (dt = 0.05)
  Simulated time:    0 -> 100
  First-step setup:  0.323 s
  Mean time/step:    0.1066 s  (excl. first step)
  Total wall time:   3m 33s
  Impulse FP iters last/mean/max: 7 / 7.579 / 8
  Approx impulse solves/step:     7.579
  Impulse start cache hits/direct: 1999 / 1
  Impulse global drift P/H:       3.050138e-8 / 2.673979e-2
  Impulse per-body max drift P/H: 4.924759e-8 / 4.109841e-3
  CPU cores:         256 available, 8 Rayon worker thread(s)
  Started:           2026-06-24 02:26:27
  Finished:          2026-06-24 02:30:01
  Output file:       /work/e643/e643/shared/multi_ellip/studies/departing_sphericity_sweep/runs/triaxial/homogeneous/triaxial_homogeneous_eps0p01_rho1_E0p5_sep8_run08_impulse_noproj/multiple_body_complete.dat
================================================
