
================ Simulation setup ================
  Run label:         /work/e643/e643/shared/multi_ellip/studies/two_body_paper_sweeps/runs/ellipsoid_1_0p8_0p6/ellipsoid_1_0p8_0p6_rho0p1_E0p55_sep8_run03_impulse_noproj/
  Started:           2026-06-24 02:05:11
  Input file:        /work/e643/e643/shared/multi_ellip/studies/two_body_paper_sweeps/runs/ellipsoid_1_0p8_0p6/ellipsoid_1_0p8_0p6_rho0p1_E0p55_sep8_run03_impulse_noproj/input.txt
  Output file:       /work/e643/e643/shared/multi_ellip/studies/two_body_paper_sweeps/runs/ellipsoid_1_0p8_0p6/ellipsoid_1_0p8_0p6_rho0p1_E0p55_sep8_run03_impulse_noproj/multiple_body_complete.dat
  Bodies:            2
  Fluid density:     1
  Mesh:              ndiv 2 -> 256 triangles / 516 nodes
  Simulated time:    0 -> 100  (dt = 0.05, ~2000 steps)
  Output cadence:    every 1 step(s)
  Output rows:       ~2001
  Progress cadence:  every 100 step(s)
  CPU cores:         256 available, 8 Rayon worker thread(s)
  Strong coupling:   disabled
  Impulse scheme:    enabled
  Hamiltonian step:  disabled
  Hamiltonian midpt: disabled
  Variational step:  disabled
  Energy projection: disabled
  Projection particular metric: Euclidean
  Fluid KE gradient: disabled  (eps = 0.001, scale = 1, linear = 1, angular = 1)
  Fluid KE discrete gradient: disabled
  Impulse pair metric correction: disabled  (mode = pair discrete-gradient, cutoff = all pairs, inner/outer = 0/0, eps = 0.001, linear scale = 1, angular scale = 0)
  Impulse metric correction: disabled  (internal load constraint = disabled)
  Impulse variational defect probe: disabled
  Impulse quadratic pressure: disabled  (scale = 1)
  Added-mass stab:   disabled
  Exact BEM geometry: disabled
  Exact singular BEM: disabled
  Legacy singular SLP diagnostic: disabled
  Phi-dot blend:     0 (off)

  Solver guidance:
    - Strong coupling: use for stiff close-coupled runs; slower but more implicit.
    - Impulse scheme: use when impulse/momentum conservation or KE drift is the focus. Recommended.
    - Added-mass stab: use for higher mesh counts (ndiv > 3) to preserve stability - deprecated.
================================================
Solver starting - good luck!

Initial state:
  Body  1
    density:          0.100000
    shape axes ratio: (1.000000, 0.800000, 0.600000)
    initial KE ratio: 0.550000
    position:         (-4.000000, 0.000000, 0.000000)
    velocity:         (-2.831622, 4.967994, -1.401420)
    angular velocity: (-0.514444, 4.681838, -4.158624)
    orientation:      (w=0.147519, i=0.134205, j=-0.338306, k=0.919661)
  Body  2
    density:          0.100000
    shape axes ratio: (1.000000, 0.800000, 0.600000)
    initial KE ratio: 0.550000
    position:         (4.000000, 0.000000, 0.000000)
    velocity:         (-2.606218, 4.572529, -1.289863)
    angular velocity: (-3.887456, -4.459458, 2.116444)
    orientation:      (w=0.465387, i=-0.751695, j=0.454183, k=0.109945)

Preparing first step: implicit scheme, no bootstrap passes required.
First step may take longer than later steps.

First step completed in 0.435 s.

Step   100/2000    5.0% | t 5.000 | ETA 8m 46s | step 0.24s | KE 114.6630 | drift +0.56% | fluid 93.0794 | solid 21.5837
  Impulse FP iterations last/mean/max 18/19.51/22
Step   200/2000   10.0% | t 10.000 | ETA 8m 11s | step 0.25s | KE 114.7775 | drift +0.66% | fluid 93.6777 | solid 21.0997
  Impulse FP iterations last/mean/max 18/19.50/22
Step   300/2000   15.0% | t 15.000 | ETA 7m 36s | step 0.29s | KE 114.5621 | drift +0.47% | fluid 93.0457 | solid 21.5164
  Impulse FP iterations last/mean/max 20/19.49/22
Step   400/2000   20.0% | t 20.000 | ETA 7m 2s | step 0.26s | KE 114.5190 | drift +0.43% | fluid 92.8204 | solid 21.6986
  Impulse FP iterations last/mean/max 19/19.50/22
Step   500/2000   25.0% | t 25.000 | ETA 6m 33s | step 0.23s | KE 114.6419 | drift +0.54% | fluid 93.3195 | solid 21.3224
  Impulse FP iterations last/mean/max 19/19.52/22
Step   600/2000   30.0% | t 30.000 | ETA 6m 7s | step 0.26s | KE 114.9099 | drift +0.77% | fluid 93.6043 | solid 21.3056
  Impulse FP iterations last/mean/max 19/19.50/22
Step   700/2000   35.0% | t 35.000 | ETA 5m 39s | step 0.24s | KE 114.1297 | drift +0.09% | fluid 91.6031 | solid 22.5267
  Impulse FP iterations last/mean/max 19/19.48/22
Step   800/2000   40.0% | t 40.000 | ETA 5m 12s | step 0.24s | KE 114.6960 | drift +0.58% | fluid 93.0968 | solid 21.5992
  Impulse FP iterations last/mean/max 20/19.49/23
Step   900/2000   45.0% | t 45.000 | ETA 4m 45s | step 0.24s | KE 114.7552 | drift +0.64% | fluid 92.0058 | solid 22.7493
  Impulse FP iterations last/mean/max 19/19.49/23
Step  1000/2000   50.0% | t 50.000 | ETA 4m 19s | step 0.26s | KE 113.9946 | drift -0.03% | fluid 91.6191 | solid 22.3755
  Impulse FP iterations last/mean/max 20/19.50/23
Step  1100/2000   55.0% | t 55.000 | ETA 3m 53s | step 0.26s | KE 114.5634 | drift +0.47% | fluid 91.1952 | solid 23.3682
  Impulse FP iterations last/mean/max 19/19.50/23
Step  1200/2000   60.0% | t 60.000 | ETA 3m 27s | step 0.26s | KE 114.4833 | drift +0.40% | fluid 92.1547 | solid 22.3286
  Impulse FP iterations last/mean/max 20/19.50/23
Step  1300/2000   65.0% | t 65.000 | ETA 3m 1s | step 0.27s | KE 114.1342 | drift +0.09% | fluid 90.9834 | solid 23.1508
  Impulse FP iterations last/mean/max 20/19.51/23
Step  1400/2000   70.0% | t 70.000 | ETA 2m 35s | step 0.23s | KE 114.4159 | drift +0.34% | fluid 90.7421 | solid 23.6739
  Impulse FP iterations last/mean/max 19/19.51/23
Step  1500/2000   75.0% | t 75.000 | ETA 2m 8s | step 0.25s | KE 114.4034 | drift +0.33% | fluid 92.8259 | solid 21.5775
  Impulse FP iterations last/mean/max 21/19.51/23
Step  1600/2000   80.0% | t 80.000 | ETA 1m 42s | step 0.27s | KE 114.5703 | drift +0.47% | fluid 91.0305 | solid 23.5398
  Impulse FP iterations last/mean/max 21/19.51/23
Step  1700/2000   85.0% | t 85.000 | ETA 1m 16s | step 0.21s | KE 114.3500 | drift +0.28% | fluid 92.0068 | solid 22.3433
  Impulse FP iterations last/mean/max 17/19.51/23
Step  1800/2000   90.0% | t 90.000 | ETA 51s | step 0.27s | KE 114.4934 | drift +0.41% | fluid 92.6067 | solid 21.8867
  Impulse FP iterations last/mean/max 20/19.50/23
Step  1900/2000   95.0% | t 95.000 | ETA 25s | step 0.24s | KE 114.9709 | drift +0.83% | fluid 93.1114 | solid 21.8595
  Impulse FP iterations last/mean/max 19/19.51/23
Solver finished successfully - good job!
Results saved successfully.

================== Run summary ==================
  Bodies:            2
  Triangles / nodes: 256 / 516
  Timesteps:         2000  (dt = 0.05)
  Simulated time:    0 -> 100
  First-step setup:  0.435 s
  Mean time/step:    0.2545 s  (excl. first step)
  Total wall time:   8m 29s
  Impulse FP iters last/mean/max: 18 / 19.515 / 23
  Approx impulse solves/step:     19.516
  Impulse start cache hits/direct: 1999 / 1
  Impulse global drift P/H:       2.421530e-8 / 3.274129e-3
  Impulse per-body max drift P/H: 7.765862e-8 / 5.375825e-4
  CPU cores:         256 available, 8 Rayon worker thread(s)
  Started:           2026-06-24 02:05:11
  Finished:          2026-06-24 02:13:41
  Output file:       /work/e643/e643/shared/multi_ellip/studies/two_body_paper_sweeps/runs/ellipsoid_1_0p8_0p6/ellipsoid_1_0p8_0p6_rho0p1_E0p55_sep8_run03_impulse_noproj/multiple_body_complete.dat
================================================
