
================ Simulation setup ================
  Run label:         /work/e643/e643/shared/multi_ellip/studies/two_body_paper_sweeps/runs/ellipsoid_1_0p8_0p6/ellipsoid_1_0p8_0p6_rho0p3_E30_sep11_run05_impulse_noproj/
  Started:           2026-06-24 02:05:08
  Input file:        /work/e643/e643/shared/multi_ellip/studies/two_body_paper_sweeps/runs/ellipsoid_1_0p8_0p6/ellipsoid_1_0p8_0p6_rho0p3_E30_sep11_run05_impulse_noproj/input.txt
  Output file:       /work/e643/e643/shared/multi_ellip/studies/two_body_paper_sweeps/runs/ellipsoid_1_0p8_0p6/ellipsoid_1_0p8_0p6_rho0p3_E30_sep11_run05_impulse_noproj/multiple_body_complete.dat
  Bodies:            2
  Fluid density:     1
  Mesh:              ndiv 2 -> 256 triangles / 516 nodes
  Simulated time:    0 -> 100  (dt = 0.05, ~2000 steps)
  Output cadence:    every 1 step(s)
  Output rows:       ~2001
  Progress cadence:  every 100 step(s)
  CPU cores:         256 available, 8 Rayon worker thread(s)
  Strong coupling:   disabled
  Impulse scheme:    enabled
  Hamiltonian step:  disabled
  Hamiltonian midpt: disabled
  Variational step:  disabled
  Energy projection: disabled
  Projection particular metric: Euclidean
  Fluid KE gradient: disabled  (eps = 0.001, scale = 1, linear = 1, angular = 1)
  Fluid KE discrete gradient: disabled
  Impulse pair metric correction: disabled  (mode = pair discrete-gradient, cutoff = all pairs, inner/outer = 0/0, eps = 0.001, linear scale = 1, angular scale = 0)
  Impulse metric correction: disabled  (internal load constraint = disabled)
  Impulse variational defect probe: disabled
  Impulse quadratic pressure: disabled  (scale = 1)
  Added-mass stab:   disabled
  Exact BEM geometry: disabled
  Exact singular BEM: disabled
  Legacy singular SLP diagnostic: disabled
  Phi-dot blend:     0 (off)

  Solver guidance:
    - Strong coupling: use for stiff close-coupled runs; slower but more implicit.
    - Impulse scheme: use when impulse/momentum conservation or KE drift is the focus. Recommended.
    - Added-mass stab: use for higher mesh counts (ndiv > 3) to preserve stability - deprecated.
================================================
Solver starting - good luck!

Initial state:
  Body  1
    density:          0.300000
    shape axes ratio: (1.000000, 0.800000, 0.600000)
    initial KE ratio: 30.000000
    position:         (-5.500000, 0.000000, 0.000000)
    velocity:         (-0.651095, -0.289269, -0.380536)
    angular velocity: (-2.724051, 0.081510, -5.661388)
    orientation:      (w=0.084568, i=0.844964, j=0.082160, k=0.521665)
  Body  2
    density:          0.300000
    shape axes ratio: (1.000000, 0.800000, 0.600000)
    initial KE ratio: 30.000000
    position:         (5.500000, 0.000000, 0.000000)
    velocity:         (-0.619538, -0.275249, -0.362093)
    angular velocity: (1.433147, 5.704311, 2.210281)
    orientation:      (w=0.695763, i=0.306943, j=0.524728, k=0.382570)

Preparing first step: implicit scheme, no bootstrap passes required.
First step may take longer than later steps.

First step completed in 0.288 s.

Step   100/2000    5.0% | t 5.000 | ETA 5m 57s | step 0.20s | KE 27.1635 | drift +0.39% | fluid 7.4942 | solid 19.6693
  Impulse FP iterations last/mean/max 14/13.99/15
Step   200/2000   10.0% | t 10.000 | ETA 5m 46s | step 0.20s | KE 27.2932 | drift +0.87% | fluid 6.1865 | solid 21.1067
  Impulse FP iterations last/mean/max 14/13.99/15
Step   300/2000   15.0% | t 15.000 | ETA 5m 27s | step 0.16s | KE 27.3736 | drift +1.16% | fluid 5.5198 | solid 21.8538
  Impulse FP iterations last/mean/max 13/13.98/15
Step   400/2000   20.0% | t 20.000 | ETA 5m 6s | step 0.16s | KE 27.3664 | drift +1.14% | fluid 6.7726 | solid 20.5938
  Impulse FP iterations last/mean/max 14/14.01/15
Step   500/2000   25.0% | t 25.000 | ETA 4m 42s | step 0.17s | KE 27.2982 | drift +0.89% | fluid 8.0584 | solid 19.2398
  Impulse FP iterations last/mean/max 15/14.03/15
Step   600/2000   30.0% | t 30.000 | ETA 4m 22s | step 0.18s | KE 27.2559 | drift +0.73% | fluid 6.6395 | solid 20.6163
  Impulse FP iterations last/mean/max 15/14.02/16
Step   700/2000   35.0% | t 35.000 | ETA 4m 0s | step 0.18s | KE 27.2455 | drift +0.69% | fluid 5.8414 | solid 21.4041
  Impulse FP iterations last/mean/max 13/14.00/16
Step   800/2000   40.0% | t 40.000 | ETA 3m 39s | step 0.19s | KE 27.2379 | drift +0.66% | fluid 6.3065 | solid 20.9314
  Impulse FP iterations last/mean/max 14/13.98/16
Step   900/2000   45.0% | t 45.000 | ETA 3m 19s | step 0.17s | KE 27.2223 | drift +0.61% | fluid 8.2546 | solid 18.9677
  Impulse FP iterations last/mean/max 15/13.98/16
Step  1000/2000   50.0% | t 50.000 | ETA 3m 0s | step 0.18s | KE 27.2137 | drift +0.57% | fluid 6.2654 | solid 20.9483
  Impulse FP iterations last/mean/max 14/13.98/16
Step  1100/2000   55.0% | t 55.000 | ETA 2m 41s | step 0.19s | KE 27.2155 | drift +0.58% | fluid 5.8969 | solid 21.3186
  Impulse FP iterations last/mean/max 13/13.96/16
Step  1200/2000   60.0% | t 60.000 | ETA 2m 24s | step 0.19s | KE 27.2177 | drift +0.59% | fluid 7.3230 | solid 19.8947
  Impulse FP iterations last/mean/max 14/13.96/16
Step  1300/2000   65.0% | t 65.000 | ETA 2m 6s | step 0.19s | KE 27.2198 | drift +0.60% | fluid 7.1461 | solid 20.0738
  Impulse FP iterations last/mean/max 14/13.96/16
Step  1400/2000   70.0% | t 70.000 | ETA 1m 48s | step 0.17s | KE 27.2144 | drift +0.58% | fluid 5.8264 | solid 21.3880
  Impulse FP iterations last/mean/max 14/13.96/16
Step  1500/2000   75.0% | t 75.000 | ETA 1m 30s | step 0.19s | KE 27.2098 | drift +0.56% | fluid 8.2333 | solid 18.9765
  Impulse FP iterations last/mean/max 15/13.96/16
Step  1600/2000   80.0% | t 80.000 | ETA 1m 12s | step 0.15s | KE 27.2290 | drift +0.63% | fluid 6.6801 | solid 20.5489
  Impulse FP iterations last/mean/max 13/13.96/16
Step  1700/2000   85.0% | t 85.000 | ETA 54s | step 0.17s | KE 27.2424 | drift +0.68% | fluid 5.7394 | solid 21.5030
  Impulse FP iterations last/mean/max 13/13.96/16
Step  1800/2000   90.0% | t 90.000 | ETA 36s | step 0.16s | KE 27.2385 | drift +0.66% | fluid 7.4767 | solid 19.7617
  Impulse FP iterations last/mean/max 14/13.95/16
Step  1900/2000   95.0% | t 95.000 | ETA 18s | step 0.17s | KE 27.2243 | drift +0.61% | fluid 8.0149 | solid 19.2094
  Impulse FP iterations last/mean/max 13/13.95/16
Solver finished successfully - good job!
Results saved successfully.

================== Run summary ==================
  Bodies:            2
  Triangles / nodes: 256 / 516
  Timesteps:         2000  (dt = 0.05)
  Simulated time:    0 -> 100
  First-step setup:  0.288 s
  Mean time/step:    0.1817 s  (excl. first step)
  Total wall time:   6m 3s
  Impulse FP iters last/mean/max: 14 / 13.948 / 16
  Approx impulse solves/step:     13.949
  Impulse start cache hits/direct: 1999 / 1
  Impulse global drift P/H:       3.158233e-8 / 1.062507e-2
  Impulse per-body max drift P/H: 5.381151e-8 / 2.038895e-2
  CPU cores:         256 available, 8 Rayon worker thread(s)
  Started:           2026-06-24 02:05:08
  Finished:          2026-06-24 02:11:12
  Output file:       /work/e643/e643/shared/multi_ellip/studies/two_body_paper_sweeps/runs/ellipsoid_1_0p8_0p6/ellipsoid_1_0p8_0p6_rho0p3_E30_sep11_run05_impulse_noproj/multiple_body_complete.dat
================================================
