
================ Simulation setup ================
  Run label:         /work/e643/e643/shared/multi_ellip/studies/departing_sphericity_sweep/runs/spheroid_prolate/homogeneous/spheroid_prolate_homogeneous_eps0p003_rho1_E0p5_sep8_run10_impulse_noproj/
  Started:           2026-06-24 02:26:39
  Input file:        /work/e643/e643/shared/multi_ellip/studies/departing_sphericity_sweep/runs/spheroid_prolate/homogeneous/spheroid_prolate_homogeneous_eps0p003_rho1_E0p5_sep8_run10_impulse_noproj/input.txt
  Output file:       /work/e643/e643/shared/multi_ellip/studies/departing_sphericity_sweep/runs/spheroid_prolate/homogeneous/spheroid_prolate_homogeneous_eps0p003_rho1_E0p5_sep8_run10_impulse_noproj/multiple_body_complete.dat
  Bodies:            2
  Fluid density:     1
  Mesh:              ndiv 2 -> 256 triangles / 516 nodes
  Simulated time:    0 -> 100  (dt = 0.05, ~2000 steps)
  Output cadence:    every 1 step(s)
  Output rows:       ~2001
  Progress cadence:  every 100 step(s)
  CPU cores:         256 available, 8 Rayon worker thread(s)
  Strong coupling:   disabled
  Impulse scheme:    enabled
  Hamiltonian step:  disabled
  Hamiltonian midpt: disabled
  Variational step:  disabled
  Energy projection: disabled
  Projection particular metric: Euclidean
  Fluid KE gradient: disabled  (eps = 0.001, scale = 1, linear = 1, angular = 1)
  Fluid KE discrete gradient: disabled
  Impulse pair metric correction: disabled  (mode = pair discrete-gradient, cutoff = all pairs, inner/outer = 0/0, eps = 0.001, linear scale = 1, angular scale = 0)
  Impulse metric correction: disabled  (internal load constraint = disabled)
  Impulse variational defect probe: disabled
  Impulse quadratic pressure: disabled  (scale = 1)
  Added-mass stab:   disabled
  Exact BEM geometry: disabled
  Exact singular BEM: disabled
  Legacy singular SLP diagnostic: disabled
  Phi-dot blend:     0 (off)

  Solver guidance:
    - Strong coupling: use for stiff close-coupled runs; slower but more implicit.
    - Impulse scheme: use when impulse/momentum conservation or KE drift is the focus. Recommended.
    - Added-mass stab: use for higher mesh counts (ndiv > 3) to preserve stability - deprecated.
================================================
Solver starting - good luck!

Initial state:
  Body  1
    density:          1.000000
    shape axes ratio: (1.000000, 0.991054, 0.991054)
    initial KE ratio: 0.500000
    position:         (-4.000000, 0.000000, 0.000000)
    velocity:         (2.175358, 5.183562, 0.061470)
    angular velocity: (3.192320, -0.635622, 5.374337)
    orientation:      (w=0.926716, i=-0.025771, j=-0.189470, k=0.323472)
  Body  2
    density:          1.000000
    shape axes ratio: (1.000000, 0.991054, 0.991054)
    initial KE ratio: 0.500000
    position:         (4.000000, 0.000000, 0.000000)
    velocity:         (2.168212, 5.166536, 0.061268)
    angular velocity: (6.239978, 0.214345, 0.703668)
    orientation:      (w=-0.216604, i=-0.398858, j=0.164108, k=0.875822)

Preparing first step: implicit scheme, no bootstrap passes required.
First step may take longer than later steps.

First step completed in 0.269 s.

Step   100/2000    5.0% | t 5.000 | ETA 3m 29s | step 0.11s | KE 263.9043 | drift -2.29% | fluid 72.1147 | solid 191.7896
  Impulse FP iterations last/mean/max 8/7.88/8
Step   200/2000   10.0% | t 10.000 | ETA 3m 19s | step 0.11s | KE 259.6140 | drift -3.88% | fluid 72.0002 | solid 187.6138
  Impulse FP iterations last/mean/max 8/7.89/8
Step   300/2000   15.0% | t 15.000 | ETA 3m 3s | step 0.10s | KE 257.0772 | drift -4.81% | fluid 72.0265 | solid 185.0507
  Impulse FP iterations last/mean/max 8/7.90/8
Step   400/2000   20.0% | t 20.000 | ETA 2m 49s | step 0.10s | KE 256.2090 | drift -5.14% | fluid 72.1352 | solid 184.0739
  Impulse FP iterations last/mean/max 8/7.91/8
Step   500/2000   25.0% | t 25.000 | ETA 2m 38s | step 0.10s | KE 256.8815 | drift -4.89% | fluid 72.1787 | solid 184.7028
  Impulse FP iterations last/mean/max 8/7.92/8
Step   600/2000   30.0% | t 30.000 | ETA 2m 28s | step 0.10s | KE 259.0187 | drift -4.10% | fluid 72.1886 | solid 186.8300
  Impulse FP iterations last/mean/max 7/7.92/8
Step   700/2000   35.0% | t 35.000 | ETA 2m 19s | step 0.12s | KE 262.4917 | drift -2.81% | fluid 72.1294 | solid 190.3623
  Impulse FP iterations last/mean/max 8/7.92/8
Step   800/2000   40.0% | t 40.000 | ETA 2m 9s | step 0.11s | KE 267.1779 | drift -1.07% | fluid 72.1005 | solid 195.0774
  Impulse FP iterations last/mean/max 8/7.92/8
Step   900/2000   45.0% | t 45.000 | ETA 1m 58s | step 0.12s | KE 273.0265 | drift +1.09% | fluid 72.1943 | solid 200.8322
  Impulse FP iterations last/mean/max 8/7.92/8
Step  1000/2000   50.0% | t 50.000 | ETA 1m 48s | step 0.11s | KE 279.9007 | drift +3.64% | fluid 72.2083 | solid 207.6924
  Impulse FP iterations last/mean/max 8/7.92/8
Step  1100/2000   55.0% | t 55.000 | ETA 1m 37s | step 0.11s | KE 287.7458 | drift +6.54% | fluid 72.0518 | solid 215.6940
  Impulse FP iterations last/mean/max 8/7.92/8
Step  1200/2000   60.0% | t 60.000 | ETA 1m 27s | step 0.12s | KE 296.4104 | drift +9.75% | fluid 72.0772 | solid 224.3332
  Impulse FP iterations last/mean/max 8/7.92/8
Step  1300/2000   65.0% | t 65.000 | ETA 1m 16s | step 0.11s | KE 305.8419 | drift +13.24% | fluid 72.0014 | solid 233.8405
  Impulse FP iterations last/mean/max 8/7.92/8
Step  1400/2000   70.0% | t 70.000 | ETA 1m 5s | step 0.11s | KE 315.9294 | drift +16.98% | fluid 72.1550 | solid 243.7744
  Impulse FP iterations last/mean/max 8/7.91/8
Step  1500/2000   75.0% | t 75.000 | ETA 54s | step 0.11s | KE 326.5982 | drift +20.93% | fluid 72.0124 | solid 254.5858
  Impulse FP iterations last/mean/max 8/7.91/8
Step  1600/2000   80.0% | t 80.000 | ETA 43s | step 0.12s | KE 337.7532 | drift +25.06% | fluid 72.0234 | solid 265.7298
  Impulse FP iterations last/mean/max 8/7.91/8
Step  1700/2000   85.0% | t 85.000 | ETA 32s | step 0.12s | KE 349.3173 | drift +29.34% | fluid 72.1699 | solid 277.1474
  Impulse FP iterations last/mean/max 8/7.90/8
Step  1800/2000   90.0% | t 90.000 | ETA 21s | step 0.11s | KE 361.1987 | drift +33.74% | fluid 72.1727 | solid 289.0260
  Impulse FP iterations last/mean/max 8/7.90/8
Step  1900/2000   95.0% | t 95.000 | ETA 10s | step 0.11s | KE 373.3584 | drift +38.24% | fluid 72.0854 | solid 301.2730
  Impulse FP iterations last/mean/max 8/7.89/8
Solver finished successfully - good job!
Results saved successfully.

================== Run summary ==================
  Bodies:            2
  Triangles / nodes: 256 / 516
  Timesteps:         2000  (dt = 0.05)
  Simulated time:    0 -> 100
  First-step setup:  0.269 s
  Mean time/step:    0.1083 s  (excl. first step)
  Total wall time:   3m 36s
  Impulse FP iters last/mean/max: 8 / 7.885 / 8
  Approx impulse solves/step:     7.885
  Impulse start cache hits/direct: 1999 / 1
  Impulse global drift P/H:       7.309542e-9 / 2.359955e-2
  Impulse per-body max drift P/H: 8.691128e-9 / 2.901928e-3
  CPU cores:         256 available, 8 Rayon worker thread(s)
  Started:           2026-06-24 02:26:39
  Finished:          2026-06-24 02:30:16
  Output file:       /work/e643/e643/shared/multi_ellip/studies/departing_sphericity_sweep/runs/spheroid_prolate/homogeneous/spheroid_prolate_homogeneous_eps0p003_rho1_E0p5_sep8_run10_impulse_noproj/multiple_body_complete.dat
================================================
