
================ Simulation setup ================
  Run label:         /work/e643/e643/shared/multi_ellip/studies/two_body_paper_sweeps/runs/spheroid_1_0p7_0p7/spheroid_1_0p7_0p7_rho0p03_E4_sep5_run04_impulse_noproj/
  Started:           2026-06-24 02:24:13
  Input file:        /work/e643/e643/shared/multi_ellip/studies/two_body_paper_sweeps/runs/spheroid_1_0p7_0p7/spheroid_1_0p7_0p7_rho0p03_E4_sep5_run04_impulse_noproj/input.txt
  Output file:       /work/e643/e643/shared/multi_ellip/studies/two_body_paper_sweeps/runs/spheroid_1_0p7_0p7/spheroid_1_0p7_0p7_rho0p03_E4_sep5_run04_impulse_noproj/multiple_body_complete.dat
  Bodies:            2
  Fluid density:     1
  Mesh:              ndiv 2 -> 256 triangles / 516 nodes
  Simulated time:    0 -> 100  (dt = 0.05, ~2000 steps)
  Output cadence:    every 1 step(s)
  Output rows:       ~2001
  Progress cadence:  every 100 step(s)
  CPU cores:         256 available, 8 Rayon worker thread(s)
  Strong coupling:   disabled
  Impulse scheme:    enabled
  Hamiltonian step:  disabled
  Hamiltonian midpt: disabled
  Variational step:  disabled
  Energy projection: disabled
  Projection particular metric: Euclidean
  Fluid KE gradient: disabled  (eps = 0.001, scale = 1, linear = 1, angular = 1)
  Fluid KE discrete gradient: disabled
  Impulse pair metric correction: disabled  (mode = pair discrete-gradient, cutoff = all pairs, inner/outer = 0/0, eps = 0.001, linear scale = 1, angular scale = 0)
  Impulse metric correction: disabled  (internal load constraint = disabled)
  Impulse variational defect probe: disabled
  Impulse quadratic pressure: disabled  (scale = 1)
  Added-mass stab:   disabled
  Exact BEM geometry: disabled
  Exact singular BEM: disabled
  Legacy singular SLP diagnostic: disabled
  Phi-dot blend:     0 (off)

  Solver guidance:
    - Strong coupling: use for stiff close-coupled runs; slower but more implicit.
    - Impulse scheme: use when impulse/momentum conservation or KE drift is the focus. Recommended.
    - Added-mass stab: use for higher mesh counts (ndiv > 3) to preserve stability - deprecated.
================================================
Solver starting - good luck!

Initial state:
  Body  1
    density:          0.030000
    shape axes ratio: (1.000000, 0.700000, 0.700000)
    initial KE ratio: 4.000000
    position:         (-2.500000, 0.000000, 0.000000)
    velocity:         (0.854535, 1.801178, 0.400633)
    angular velocity: (3.814923, 2.331971, 4.414373)
    orientation:      (w=0.549575, i=-0.188527, j=-0.389014, k=0.714908)
  Body  2
    density:          0.030000
    shape axes ratio: (1.000000, 0.700000, 0.700000)
    initial KE ratio: 4.000000
    position:         (2.500000, 0.000000, 0.000000)
    velocity:         (0.911375, 1.920985, 0.427281)
    angular velocity: (0.836725, -6.019046, 1.596681)
    orientation:      (w=0.537073, i=-0.535163, j=-0.405859, k=0.510325)

Preparing first step: implicit scheme, no bootstrap passes required.
First step may take longer than later steps.

First step completed in 0.481 s.

Step   100/2000    5.0% | t 5.000 | ETA 9m 11s | step 0.35s | KE 17.8292 | drift +24.93% | fluid 12.2232 | solid 5.6060
  Impulse FP iterations last/mean/max 23/19.97/23
Step   200/2000   10.0% | t 10.000 | ETA 9m 5s | step 0.30s | KE 35.1985 | drift +146.65% | fluid 15.3824 | solid 19.8162
  Impulse FP iterations last/mean/max 22/20.96/24
Step   300/2000   15.0% | t 15.000 | ETA 8m 35s | step 0.30s | KE 44.3147 | drift +210.53% | fluid 18.3484 | solid 25.9663
  Impulse FP iterations last/mean/max 22/21.23/24
Step   400/2000   20.0% | t 20.000 | ETA 8m 0s | step 0.31s | KE 44.1175 | drift +209.15% | fluid 18.3986 | solid 25.7189
  Impulse FP iterations last/mean/max 22/21.12/24
Step   500/2000   25.0% | t 25.000 | ETA 7m 26s | step 0.29s | KE 43.3876 | drift +204.03% | fluid 18.3849 | solid 25.0027
  Impulse FP iterations last/mean/max 20/20.98/24
Step   600/2000   30.0% | t 30.000 | ETA 6m 53s | step 0.29s | KE 43.0348 | drift +201.56% | fluid 18.2213 | solid 24.8135
  Impulse FP iterations last/mean/max 22/20.87/24
Step   700/2000   35.0% | t 35.000 | ETA 6m 21s | step 0.28s | KE 42.9200 | drift +200.75% | fluid 18.0891 | solid 24.8309
  Impulse FP iterations last/mean/max 20/20.79/24
Step   800/2000   40.0% | t 40.000 | ETA 5m 50s | step 0.27s | KE 42.8307 | drift +200.13% | fluid 18.1663 | solid 24.6643
  Impulse FP iterations last/mean/max 20/20.73/24
Step   900/2000   45.0% | t 45.000 | ETA 5m 20s | step 0.30s | KE 42.7030 | drift +199.23% | fluid 18.0250 | solid 24.6779
  Impulse FP iterations last/mean/max 20/20.68/24
Step  1000/2000   50.0% | t 50.000 | ETA 4m 50s | step 0.29s | KE 42.5919 | drift +198.46% | fluid 18.2690 | solid 24.3230
  Impulse FP iterations last/mean/max 21/20.65/24
Step  1100/2000   55.0% | t 55.000 | ETA 4m 20s | step 0.31s | KE 42.4514 | drift +197.47% | fluid 18.0836 | solid 24.3678
  Impulse FP iterations last/mean/max 22/20.62/24
Step  1200/2000   60.0% | t 60.000 | ETA 3m 51s | step 0.27s | KE 42.4342 | drift +197.35% | fluid 18.2895 | solid 24.1447
  Impulse FP iterations last/mean/max 19/20.59/24
Step  1300/2000   65.0% | t 65.000 | ETA 3m 22s | step 0.29s | KE 42.4265 | drift +197.30% | fluid 18.1583 | solid 24.2682
  Impulse FP iterations last/mean/max 21/20.57/24
Step  1400/2000   70.0% | t 70.000 | ETA 2m 52s | step 0.27s | KE 42.5447 | drift +198.12% | fluid 18.2178 | solid 24.3269
  Impulse FP iterations last/mean/max 20/20.55/24
Step  1500/2000   75.0% | t 75.000 | ETA 2m 23s | step 0.29s | KE 42.6922 | drift +199.16% | fluid 18.2046 | solid 24.4876
  Impulse FP iterations last/mean/max 21/20.54/24
Step  1600/2000   80.0% | t 80.000 | ETA 1m 54s | step 0.28s | KE 42.8475 | drift +200.25% | fluid 18.0411 | solid 24.8064
  Impulse FP iterations last/mean/max 20/20.52/24
Step  1700/2000   85.0% | t 85.000 | ETA 1m 26s | step 0.27s | KE 42.9884 | drift +201.23% | fluid 18.1756 | solid 24.8128
  Impulse FP iterations last/mean/max 20/20.51/24
Step  1800/2000   90.0% | t 90.000 | ETA 56s | step 0.21s | KE 43.0033 | drift +201.34% | fluid 17.9663 | solid 25.0371
  Impulse FP iterations last/mean/max 21/20.50/24
Step  1900/2000   95.0% | t 95.000 | ETA 27s | step 0.17s | KE 43.0134 | drift +201.41% | fluid 18.2108 | solid 24.8026
  Impulse FP iterations last/mean/max 20/20.48/24
Solver finished successfully - good job!
Results saved successfully.

================== Run summary ==================
  Bodies:            2
  Triangles / nodes: 256 / 516
  Timesteps:         2000  (dt = 0.05)
  Simulated time:    0 -> 100
  First-step setup:  0.481 s
  Mean time/step:    0.2732 s  (excl. first step)
  Total wall time:   9m 6s
  Impulse FP iters last/mean/max: 21 / 20.476 / 24
  Approx impulse solves/step:     20.476
  Impulse start cache hits/direct: 1999 / 1
  Impulse global drift P/H:       1.634192e-7 / 3.445987e-1
  Impulse per-body max drift P/H: 3.697998e-7 / 8.132730e-2
  CPU cores:         256 available, 8 Rayon worker thread(s)
  Started:           2026-06-24 02:24:13
  Finished:          2026-06-24 02:33:20
  Output file:       /work/e643/e643/shared/multi_ellip/studies/two_body_paper_sweeps/runs/spheroid_1_0p7_0p7/spheroid_1_0p7_0p7_rho0p03_E4_sep5_run04_impulse_noproj/multiple_body_complete.dat
================================================
