
================ Simulation setup ================
  Run label:         /work/e643/e643/shared/multi_ellip/studies/departing_sphericity_sweep/runs/triaxial/heterogeneous_sphere/triaxial_heterogeneous_sphere_eps0p0001_rho1_E0p5_sep8_run01_impulse_noproj/
  Started:           2026-06-24 02:37:13
  Input file:        /work/e643/e643/shared/multi_ellip/studies/departing_sphericity_sweep/runs/triaxial/heterogeneous_sphere/triaxial_heterogeneous_sphere_eps0p0001_rho1_E0p5_sep8_run01_impulse_noproj/input.txt
  Output file:       /work/e643/e643/shared/multi_ellip/studies/departing_sphericity_sweep/runs/triaxial/heterogeneous_sphere/triaxial_heterogeneous_sphere_eps0p0001_rho1_E0p5_sep8_run01_impulse_noproj/multiple_body_complete.dat
  Bodies:            2
  Fluid density:     1
  Mesh:              ndiv 2 -> 256 triangles / 516 nodes
  Simulated time:    0 -> 100  (dt = 0.05, ~2000 steps)
  Output cadence:    every 1 step(s)
  Output rows:       ~2001
  Progress cadence:  every 100 step(s)
  CPU cores:         256 available, 8 Rayon worker thread(s)
  Strong coupling:   disabled
  Impulse scheme:    enabled
  Hamiltonian step:  disabled
  Hamiltonian midpt: disabled
  Variational step:  disabled
  Energy projection: disabled
  Projection particular metric: Euclidean
  Fluid KE gradient: disabled  (eps = 0.001, scale = 1, linear = 1, angular = 1)
  Fluid KE discrete gradient: disabled
  Impulse pair metric correction: disabled  (mode = pair discrete-gradient, cutoff = all pairs, inner/outer = 0/0, eps = 0.001, linear scale = 1, angular scale = 0)
  Impulse metric correction: disabled  (internal load constraint = disabled)
  Impulse variational defect probe: disabled
  Impulse quadratic pressure: disabled  (scale = 1)
  Added-mass stab:   disabled
  Exact BEM geometry: disabled
  Exact singular BEM: disabled
  Legacy singular SLP diagnostic: disabled
  Phi-dot blend:     0 (off)

  Solver guidance:
    - Strong coupling: use for stiff close-coupled runs; slower but more implicit.
    - Impulse scheme: use when impulse/momentum conservation or KE drift is the focus. Recommended.
    - Added-mass stab: use for higher mesh counts (ndiv > 3) to preserve stability - deprecated.
================================================
Solver starting - good luck!

Initial state:
  Body  1
    density:          1.000000
    shape axes ratio: (1.000000, 0.999900, 0.999800)
    initial KE ratio: 0.500000
    position:         (-4.000000, 0.000000, 0.000000)
    velocity:         (-2.914482, -4.735361, -0.814598)
    angular velocity: (4.105752, 4.717399, -0.606111)
    orientation:      (w=0.864675, i=-0.230968, j=-0.040324, k=-0.444258)
  Body  2
    density:          1.000000
    shape axes ratio: (1.000000, 1.000000, 1.000000)
    initial KE ratio: 0.500000
    position:         (4.000000, 0.000000, 0.000000)
    velocity:         (-2.914543, -4.735460, -0.814615)
    angular velocity: (4.390710, -1.879915, 4.082402)
    orientation:      (w=-0.693281, i=0.640826, j=0.012016, k=0.329483)

Preparing first step: implicit scheme, no bootstrap passes required.
First step may take longer than later steps.

First step completed in 0.233 s.

Step   100/2000    5.0% | t 5.000 | ETA 2m 24s | step 0.08s | KE 267.8283 | drift -1.12% | fluid 72.4351 | solid 195.3933
  Impulse FP iterations last/mean/max 6/5.46/6
Step   200/2000   10.0% | t 10.000 | ETA 2m 20s | step 0.07s | KE 267.3174 | drift -1.31% | fluid 72.4346 | solid 194.8828
  Impulse FP iterations last/mean/max 5/5.55/6
Step   300/2000   15.0% | t 15.000 | ETA 2m 15s | step 0.09s | KE 269.3400 | drift -0.57% | fluid 72.4356 | solid 196.9044
  Impulse FP iterations last/mean/max 6/5.67/6
Step   400/2000   20.0% | t 20.000 | ETA 2m 9s | step 0.08s | KE 273.8957 | drift +1.12% | fluid 72.4355 | solid 201.4601
  Impulse FP iterations last/mean/max 6/5.75/6
Step   500/2000   25.0% | t 25.000 | ETA 2m 2s | step 0.09s | KE 280.9838 | drift +3.73% | fluid 72.4351 | solid 208.5487
  Impulse FP iterations last/mean/max 6/5.80/6
Step   600/2000   30.0% | t 30.000 | ETA 1m 54s | step 0.08s | KE 290.6042 | drift +7.28% | fluid 72.4350 | solid 218.1692
  Impulse FP iterations last/mean/max 6/5.83/6
Step   700/2000   35.0% | t 35.000 | ETA 1m 47s | step 0.08s | KE 302.7562 | drift +11.77% | fluid 72.4357 | solid 230.3205
  Impulse FP iterations last/mean/max 6/5.86/7
Step   800/2000   40.0% | t 40.000 | ETA 1m 39s | step 0.08s | KE 317.4394 | drift +17.19% | fluid 72.4351 | solid 245.0042
  Impulse FP iterations last/mean/max 6/5.90/7
Step   900/2000   45.0% | t 45.000 | ETA 1m 31s | step 0.09s | KE 334.6527 | drift +23.55% | fluid 72.4341 | solid 262.2186
  Impulse FP iterations last/mean/max 6/5.93/7
Step  1000/2000   50.0% | t 50.000 | ETA 1m 24s | step 0.09s | KE 354.3951 | drift +30.83% | fluid 72.4354 | solid 281.9597
  Impulse FP iterations last/mean/max 6/5.98/7
Step  1100/2000   55.0% | t 55.000 | ETA 1m 16s | step 0.09s | KE 376.6674 | drift +39.06% | fluid 72.4346 | solid 304.2328
  Impulse FP iterations last/mean/max 6/6.03/7
Step  1200/2000   60.0% | t 60.000 | ETA 1m 8s | step 0.09s | KE 401.4667 | drift +48.21% | fluid 72.4353 | solid 329.0314
  Impulse FP iterations last/mean/max 6/6.07/7
Step  1300/2000   65.0% | t 65.000 | ETA 1m 0s | step 0.10s | KE 428.7949 | drift +58.30% | fluid 72.4337 | solid 356.3612
  Impulse FP iterations last/mean/max 7/6.12/7
Step  1400/2000   70.0% | t 70.000 | ETA 51s | step 0.08s | KE 458.6483 | drift +69.32% | fluid 72.4352 | solid 386.2131
  Impulse FP iterations last/mean/max 6/6.16/7
Step  1500/2000   75.0% | t 75.000 | ETA 43s | step 0.09s | KE 491.0270 | drift +81.28% | fluid 72.4369 | solid 418.5901
  Impulse FP iterations last/mean/max 7/6.19/7
Step  1600/2000   80.0% | t 80.000 | ETA 34s | step 0.09s | KE 525.9339 | drift +94.16% | fluid 72.4342 | solid 453.4997
  Impulse FP iterations last/mean/max 7/6.22/7
Step  1700/2000   85.0% | t 85.000 | ETA 26s | step 0.10s | KE 563.3634 | drift +107.98% | fluid 72.4334 | solid 490.9300
  Impulse FP iterations last/mean/max 7/6.26/7
Step  1800/2000   90.0% | t 90.000 | ETA 17s | step 0.08s | KE 603.3162 | drift +122.73% | fluid 72.4334 | solid 530.8828
  Impulse FP iterations last/mean/max 7/6.30/7
Step  1900/2000   95.0% | t 95.000 | ETA 8s | step 0.07s | KE 645.7886 | drift +138.41% | fluid 72.4370 | solid 573.3516
  Impulse FP iterations last/mean/max 7/6.33/7
Solver finished successfully - good job!
Results saved successfully.

================== Run summary ==================
  Bodies:            2
  Triangles / nodes: 256 / 516
  Timesteps:         2000  (dt = 0.05)
  Simulated time:    0 -> 100
  First-step setup:  0.233 s
  Mean time/step:    0.0855 s  (excl. first step)
  Total wall time:   2m 51s
  Impulse FP iters last/mean/max: 7 / 6.364 / 7
  Approx impulse solves/step:     6.364
  Impulse start cache hits/direct: 1999 / 1
  Impulse global drift P/H:       2.036607e-9 / 5.363708e-2
  Impulse per-body max drift P/H: 5.653832e-9 / 5.458354e-3
  CPU cores:         256 available, 8 Rayon worker thread(s)
  Started:           2026-06-24 02:37:13
  Finished:          2026-06-24 02:40:05
  Output file:       /work/e643/e643/shared/multi_ellip/studies/departing_sphericity_sweep/runs/triaxial/heterogeneous_sphere/triaxial_heterogeneous_sphere_eps0p0001_rho1_E0p5_sep8_run01_impulse_noproj/multiple_body_complete.dat
================================================
