
================ Simulation setup ================
  Run label:         /work/e643/e643/shared/multi_ellip/studies/departing_sphericity_sweep/runs/spheroid_oblate/homogeneous/spheroid_oblate_homogeneous_eps0_rho1_E0p5_sep8_run05_impulse_noproj/
  Started:           2026-06-24 02:23:12
  Input file:        /work/e643/e643/shared/multi_ellip/studies/departing_sphericity_sweep/runs/spheroid_oblate/homogeneous/spheroid_oblate_homogeneous_eps0_rho1_E0p5_sep8_run05_impulse_noproj/input.txt
  Output file:       /work/e643/e643/shared/multi_ellip/studies/departing_sphericity_sweep/runs/spheroid_oblate/homogeneous/spheroid_oblate_homogeneous_eps0_rho1_E0p5_sep8_run05_impulse_noproj/multiple_body_complete.dat
  Bodies:            2
  Fluid density:     1
  Mesh:              ndiv 2 -> 256 triangles / 516 nodes
  Simulated time:    0 -> 100  (dt = 0.05, ~2000 steps)
  Output cadence:    every 1 step(s)
  Output rows:       ~2001
  Progress cadence:  every 100 step(s)
  CPU cores:         256 available, 8 Rayon worker thread(s)
  Strong coupling:   disabled
  Impulse scheme:    enabled
  Hamiltonian step:  disabled
  Hamiltonian midpt: disabled
  Variational step:  disabled
  Energy projection: disabled
  Projection particular metric: Euclidean
  Fluid KE gradient: disabled  (eps = 0.001, scale = 1, linear = 1, angular = 1)
  Fluid KE discrete gradient: disabled
  Impulse pair metric correction: disabled  (mode = pair discrete-gradient, cutoff = all pairs, inner/outer = 0/0, eps = 0.001, linear scale = 1, angular scale = 0)
  Impulse metric correction: disabled  (internal load constraint = disabled)
  Impulse variational defect probe: disabled
  Impulse quadratic pressure: disabled  (scale = 1)
  Added-mass stab:   disabled
  Exact BEM geometry: disabled
  Exact singular BEM: disabled
  Legacy singular SLP diagnostic: disabled
  Phi-dot blend:     0 (off)

  Solver guidance:
    - Strong coupling: use for stiff close-coupled runs; slower but more implicit.
    - Impulse scheme: use when impulse/momentum conservation or KE drift is the focus. Recommended.
    - Added-mass stab: use for higher mesh counts (ndiv > 3) to preserve stability - deprecated.
================================================
Solver starting - good luck!

Initial state:
  Body  1
    density:          1.000000
    shape axes ratio: (1.000000, 1.000000, 1.000000)
    initial KE ratio: 0.500000
    position:         (-4.000000, 0.000000, 0.000000)
    velocity:         (2.536954, 4.037112, -2.974613)
    angular velocity: (-5.026517, -1.378341, -3.508949)
    orientation:      (w=-0.688625, i=0.280419, j=0.557357, k=0.369477)
  Body  2
    density:          1.000000
    shape axes ratio: (1.000000, 1.000000, 1.000000)
    initial KE ratio: 0.500000
    position:         (4.000000, 0.000000, 0.000000)
    velocity:         (2.536954, 4.037112, -2.974613)
    angular velocity: (3.350372, 4.276090, -3.157290)
    orientation:      (w=-0.413706, i=0.124431, j=0.556055, k=-0.710048)

Preparing first step: implicit scheme, no bootstrap passes required.
First step may take longer than later steps.

First step completed in 4.638 s.

Step   100/2000    5.0% | t 5.000 | ETA 2m 31s | step 0.08s | KE 276.8124 | drift +2.18% | fluid 72.4782 | solid 204.3342
  Impulse FP iterations last/mean/max 6/6.00/6
Step   200/2000   10.0% | t 10.000 | ETA 2m 22s | step 0.07s | KE 284.7949 | drift +5.12% | fluid 72.4782 | solid 212.3167
  Impulse FP iterations last/mean/max 6/6.00/6
Step   300/2000   15.0% | t 15.000 | ETA 2m 15s | step 0.09s | KE 294.8654 | drift +8.84% | fluid 72.4782 | solid 222.3872
  Impulse FP iterations last/mean/max 6/6.00/6
Step   400/2000   20.0% | t 20.000 | ETA 2m 6s | step 0.07s | KE 307.0242 | drift +13.33% | fluid 72.4782 | solid 234.5460
  Impulse FP iterations last/mean/max 6/6.00/6
Step   500/2000   25.0% | t 25.000 | ETA 1m 58s | step 0.08s | KE 321.2712 | drift +18.59% | fluid 72.4783 | solid 248.7929
  Impulse FP iterations last/mean/max 6/5.99/6
Step   600/2000   30.0% | t 30.000 | ETA 1m 50s | step 0.07s | KE 337.6062 | drift +24.62% | fluid 72.4783 | solid 265.1279
  Impulse FP iterations last/mean/max 5/5.96/6
Step   700/2000   35.0% | t 35.000 | ETA 1m 42s | step 0.06s | KE 356.0292 | drift +31.42% | fluid 72.4783 | solid 283.5509
  Impulse FP iterations last/mean/max 5/5.93/6
Step   800/2000   40.0% | t 40.000 | ETA 1m 33s | step 0.07s | KE 376.5401 | drift +38.99% | fluid 72.4783 | solid 304.0618
  Impulse FP iterations last/mean/max 5/5.90/6
Step   900/2000   45.0% | t 45.000 | ETA 1m 25s | step 0.07s | KE 399.1386 | drift +47.33% | fluid 72.4783 | solid 326.6603
  Impulse FP iterations last/mean/max 5/5.86/6
Step  1000/2000   50.0% | t 50.000 | ETA 1m 17s | step 0.08s | KE 423.8250 | drift +56.44% | fluid 72.4783 | solid 351.3467
  Impulse FP iterations last/mean/max 6/5.83/6
Step  1100/2000   55.0% | t 55.000 | ETA 1m 9s | step 0.06s | KE 450.5990 | drift +66.32% | fluid 72.4783 | solid 378.1206
  Impulse FP iterations last/mean/max 5/5.79/6
Step  1200/2000   60.0% | t 60.000 | ETA 1m 1s | step 0.08s | KE 479.4603 | drift +76.98% | fluid 72.4783 | solid 406.9820
  Impulse FP iterations last/mean/max 6/5.76/6
Step  1300/2000   65.0% | t 65.000 | ETA 53s | step 0.07s | KE 510.4092 | drift +88.40% | fluid 72.4784 | solid 437.9308
  Impulse FP iterations last/mean/max 5/5.74/6
Step  1400/2000   70.0% | t 70.000 | ETA 45s | step 0.07s | KE 543.4451 | drift +100.59% | fluid 72.4784 | solid 470.9667
  Impulse FP iterations last/mean/max 5/5.71/6
Step  1500/2000   75.0% | t 75.000 | ETA 37s | step 0.06s | KE 578.5683 | drift +113.56% | fluid 72.4784 | solid 506.0899
  Impulse FP iterations last/mean/max 5/5.69/6
Step  1600/2000   80.0% | t 80.000 | ETA 30s | step 0.07s | KE 615.7783 | drift +127.29% | fluid 72.4784 | solid 543.2999
  Impulse FP iterations last/mean/max 5/5.66/6
Step  1700/2000   85.0% | t 85.000 | ETA 22s | step 0.07s | KE 655.0754 | drift +141.80% | fluid 72.4785 | solid 582.5969
  Impulse FP iterations last/mean/max 6/5.63/6
Step  1800/2000   90.0% | t 90.000 | ETA 14s | step 0.07s | KE 696.4590 | drift +157.07% | fluid 72.4785 | solid 623.9805
  Impulse FP iterations last/mean/max 5/5.62/6
Step  1900/2000   95.0% | t 95.000 | ETA 7s | step 0.07s | KE 739.9292 | drift +173.12% | fluid 72.4785 | solid 667.4506
  Impulse FP iterations last/mean/max 6/5.60/6
Solver finished successfully - good job!
Results saved successfully.

================== Run summary ==================
  Bodies:            2
  Triangles / nodes: 256 / 516
  Timesteps:         2000  (dt = 0.05)
  Simulated time:    0 -> 100
  First-step setup:  4.638 s
  Mean time/step:    0.0732 s  (excl. first step)
  Total wall time:   2m 31s
  Impulse FP iters last/mean/max: 6 / 5.580 / 6
  Approx impulse solves/step:     5.581
  Impulse start cache hits/direct: 1999 / 1
  Impulse global drift P/H:       1.206601e-9 / 6.110229e-2
  Impulse per-body max drift P/H: 2.657223e-9 / 4.074904e-3
  CPU cores:         256 available, 8 Rayon worker thread(s)
  Started:           2026-06-24 02:23:12
  Finished:          2026-06-24 02:25:44
  Output file:       /work/e643/e643/shared/multi_ellip/studies/departing_sphericity_sweep/runs/spheroid_oblate/homogeneous/spheroid_oblate_homogeneous_eps0_rho1_E0p5_sep8_run05_impulse_noproj/multiple_body_complete.dat
================================================
