
================ Simulation setup ================
  Run label:         /work/e643/e643/shared/multi_ellip/studies/two_body_paper_sweeps/runs/ellipsoid_1_0p8_0p6/ellipsoid_1_0p8_0p6_rho10_E0p2_sep5_run03_impulse_noproj/
  Started:           2026-06-24 01:17:40
  Input file:        /work/e643/e643/shared/multi_ellip/studies/two_body_paper_sweeps/runs/ellipsoid_1_0p8_0p6/ellipsoid_1_0p8_0p6_rho10_E0p2_sep5_run03_impulse_noproj/input.txt
  Output file:       /work/e643/e643/shared/multi_ellip/studies/two_body_paper_sweeps/runs/ellipsoid_1_0p8_0p6/ellipsoid_1_0p8_0p6_rho10_E0p2_sep5_run03_impulse_noproj/multiple_body_complete.dat
  Bodies:            2
  Fluid density:     1
  Mesh:              ndiv 2 -> 256 triangles / 516 nodes
  Simulated time:    0 -> 100  (dt = 0.05, ~2000 steps)
  Output cadence:    every 1 step(s)
  Output rows:       ~2001
  Progress cadence:  every 100 step(s)
  CPU cores:         256 available, 8 Rayon worker thread(s)
  Strong coupling:   disabled
  Impulse scheme:    enabled
  Hamiltonian step:  disabled
  Hamiltonian midpt: disabled
  Variational step:  disabled
  Energy projection: disabled
  Projection particular metric: Euclidean
  Fluid KE gradient: disabled  (eps = 0.001, scale = 1, linear = 1, angular = 1)
  Fluid KE discrete gradient: disabled
  Impulse pair metric correction: disabled  (mode = pair discrete-gradient, cutoff = all pairs, inner/outer = 0/0, eps = 0.001, linear scale = 1, angular scale = 0)
  Impulse metric correction: disabled  (internal load constraint = disabled)
  Impulse variational defect probe: disabled
  Impulse quadratic pressure: disabled  (scale = 1)
  Added-mass stab:   disabled
  Exact BEM geometry: disabled
  Exact singular BEM: disabled
  Legacy singular SLP diagnostic: disabled
  Phi-dot blend:     0 (off)

  Solver guidance:
    - Strong coupling: use for stiff close-coupled runs; slower but more implicit.
    - Impulse scheme: use when impulse/momentum conservation or KE drift is the focus. Recommended.
    - Added-mass stab: use for higher mesh counts (ndiv > 3) to preserve stability - deprecated.
================================================
Solver starting - good luck!

Initial state:
  Body  1
    density:          10.000000
    shape axes ratio: (1.000000, 0.800000, 0.600000)
    initial KE ratio: 0.200000
    position:         (-2.500000, 0.000000, 0.000000)
    velocity:         (2.197267, -5.498861, 5.715628)
    angular velocity: (-6.023292, -0.068139, -1.787101)
    orientation:      (w=-0.133410, i=-0.727743, j=-0.654781, k=0.154444)
  Body  2
    density:          10.000000
    shape axes ratio: (1.000000, 0.800000, 0.600000)
    initial KE ratio: 0.200000
    position:         (2.500000, 0.000000, 0.000000)
    velocity:         (2.587541, -6.475556, 6.730824)
    angular velocity: (1.442081, 4.562566, -4.072077)
    orientation:      (w=-0.287896, i=0.666248, j=0.102204, k=-0.680282)

Preparing first step: implicit scheme, no bootstrap passes required.
First step may take longer than later steps.

First step completed in 7.176 s.

Step   100/2000    5.0% | t 5.000 | ETA 3m 14s | step 0.12s | KE 4170.1486 | drift -0.59% | fluid 175.1055 | solid 3995.0431
  Impulse FP iterations last/mean/max 8/7.21/8
Step   200/2000   10.0% | t 10.000 | ETA 3m 5s | step 0.10s | KE 4168.4994 | drift -0.63% | fluid 140.3010 | solid 4028.1984
  Impulse FP iterations last/mean/max 7/7.24/8
Step   300/2000   15.0% | t 15.000 | ETA 2m 54s | step 0.10s | KE 4165.9194 | drift -0.69% | fluid 191.2144 | solid 3974.7050
  Impulse FP iterations last/mean/max 7/7.22/8
Step   400/2000   20.0% | t 20.000 | ETA 2m 44s | step 0.10s | KE 4166.6494 | drift -0.68% | fluid 142.9453 | solid 4023.7041
  Impulse FP iterations last/mean/max 7/7.21/8
Step   500/2000   25.0% | t 25.000 | ETA 2m 34s | step 0.10s | KE 4166.3608 | drift -0.68% | fluid 172.4528 | solid 3993.9080
  Impulse FP iterations last/mean/max 7/7.22/8
Step   600/2000   30.0% | t 30.000 | ETA 2m 23s | step 0.10s | KE 4166.6564 | drift -0.68% | fluid 144.0811 | solid 4022.5753
  Impulse FP iterations last/mean/max 7/7.22/8
Step   700/2000   35.0% | t 35.000 | ETA 2m 13s | step 0.10s | KE 4167.1125 | drift -0.66% | fluid 149.5797 | solid 4017.5328
  Impulse FP iterations last/mean/max 8/7.22/8
Step   800/2000   40.0% | t 40.000 | ETA 2m 3s | step 0.11s | KE 4166.4430 | drift -0.68% | fluid 166.6020 | solid 3999.8409
  Impulse FP iterations last/mean/max 8/7.21/8
Step   900/2000   45.0% | t 45.000 | ETA 1m 52s | step 0.10s | KE 4167.3665 | drift -0.66% | fluid 132.7350 | solid 4034.6315
  Impulse FP iterations last/mean/max 7/7.23/8
Step  1000/2000   50.0% | t 50.000 | ETA 1m 42s | step 0.10s | KE 4165.7566 | drift -0.70% | fluid 192.4579 | solid 3973.2986
  Impulse FP iterations last/mean/max 7/7.24/8
Step  1100/2000   55.0% | t 55.000 | ETA 1m 32s | step 0.10s | KE 4167.0743 | drift -0.67% | fluid 130.5989 | solid 4036.4754
  Impulse FP iterations last/mean/max 7/7.25/8
Step  1200/2000   60.0% | t 60.000 | ETA 1m 22s | step 0.10s | KE 4165.3821 | drift -0.71% | fluid 205.5633 | solid 3959.8188
  Impulse FP iterations last/mean/max 7/7.25/8
Step  1300/2000   65.0% | t 65.000 | ETA 1m 12s | step 0.10s | KE 4167.0356 | drift -0.67% | fluid 137.1140 | solid 4029.9217
  Impulse FP iterations last/mean/max 7/7.26/8
Step  1400/2000   70.0% | t 70.000 | ETA 1m 1s | step 0.10s | KE 4165.7341 | drift -0.70% | fluid 198.5931 | solid 3967.1410
  Impulse FP iterations last/mean/max 7/7.26/8
Step  1500/2000   75.0% | t 75.000 | ETA 51s | step 0.10s | KE 4167.2190 | drift -0.66% | fluid 147.5651 | solid 4019.6539
  Impulse FP iterations last/mean/max 7/7.26/8
Step  1600/2000   80.0% | t 80.000 | ETA 41s | step 0.10s | KE 4166.7599 | drift -0.67% | fluid 166.6728 | solid 4000.0871
  Impulse FP iterations last/mean/max 7/7.26/8
Step  1700/2000   85.0% | t 85.000 | ETA 30s | step 0.10s | KE 4166.8905 | drift -0.67% | fluid 165.8327 | solid 4001.0577
  Impulse FP iterations last/mean/max 7/7.26/8
Step  1800/2000   90.0% | t 90.000 | ETA 20s | step 0.10s | KE 4166.8515 | drift -0.67% | fluid 158.4209 | solid 4008.4306
  Impulse FP iterations last/mean/max 7/7.25/8
Step  1900/2000   95.0% | t 95.000 | ETA 10s | step 0.09s | KE 4166.0729 | drift -0.69% | fluid 193.5984 | solid 3972.4744
  Impulse FP iterations last/mean/max 7/7.25/8
Solver finished successfully - good job!
Results saved successfully.

================== Run summary ==================
  Bodies:            2
  Triangles / nodes: 256 / 516
  Timesteps:         2000  (dt = 0.05)
  Simulated time:    0 -> 100
  First-step setup:  7.176 s
  Mean time/step:    0.1022 s  (excl. first step)
  Total wall time:   3m 31s
  Impulse FP iters last/mean/max: 7 / 7.245 / 8
  Approx impulse solves/step:     7.245
  Impulse start cache hits/direct: 1999 / 1
  Impulse global drift P/H:       1.312015e-9 / 1.091465e-2
  Impulse per-body max drift P/H: 1.616005e-9 / 2.576632e-3
  CPU cores:         256 available, 8 Rayon worker thread(s)
  Started:           2026-06-24 01:17:40
  Finished:          2026-06-24 01:21:13
  Output file:       /work/e643/e643/shared/multi_ellip/studies/two_body_paper_sweeps/runs/ellipsoid_1_0p8_0p6/ellipsoid_1_0p8_0p6_rho10_E0p2_sep5_run03_impulse_noproj/multiple_body_complete.dat
================================================
