
================ Simulation setup ================
  Run label:         /work/e643/e643/shared/multi_ellip/studies/departing_sphericity_sweep/runs/spheroid_oblate/homogeneous/spheroid_oblate_homogeneous_eps1_rho1_E0p5_sep8_run07_impulse_noproj/
  Started:           2026-06-24 02:38:56
  Input file:        /work/e643/e643/shared/multi_ellip/studies/departing_sphericity_sweep/runs/spheroid_oblate/homogeneous/spheroid_oblate_homogeneous_eps1_rho1_E0p5_sep8_run07_impulse_noproj/input.txt
  Output file:       /work/e643/e643/shared/multi_ellip/studies/departing_sphericity_sweep/runs/spheroid_oblate/homogeneous/spheroid_oblate_homogeneous_eps1_rho1_E0p5_sep8_run07_impulse_noproj/multiple_body_complete.dat
  Bodies:            2
  Fluid density:     1
  Mesh:              ndiv 2 -> 256 triangles / 516 nodes
  Simulated time:    0 -> 100  (dt = 0.05, ~2000 steps)
  Output cadence:    every 1 step(s)
  Output rows:       ~2001
  Progress cadence:  every 100 step(s)
  CPU cores:         256 available, 8 Rayon worker thread(s)
  Strong coupling:   disabled
  Impulse scheme:    enabled
  Hamiltonian step:  disabled
  Hamiltonian midpt: disabled
  Variational step:  disabled
  Energy projection: disabled
  Projection particular metric: Euclidean
  Fluid KE gradient: disabled  (eps = 0.001, scale = 1, linear = 1, angular = 1)
  Fluid KE discrete gradient: disabled
  Impulse pair metric correction: disabled  (mode = pair discrete-gradient, cutoff = all pairs, inner/outer = 0/0, eps = 0.001, linear scale = 1, angular scale = 0)
  Impulse metric correction: disabled  (internal load constraint = disabled)
  Impulse variational defect probe: disabled
  Impulse quadratic pressure: disabled  (scale = 1)
  Added-mass stab:   disabled
  Exact BEM geometry: disabled
  Exact singular BEM: disabled
  Legacy singular SLP diagnostic: disabled
  Phi-dot blend:     0 (off)

  Solver guidance:
    - Strong coupling: use for stiff close-coupled runs; slower but more implicit.
    - Impulse scheme: use when impulse/momentum conservation or KE drift is the focus. Recommended.
    - Added-mass stab: use for higher mesh counts (ndiv > 3) to preserve stability - deprecated.
================================================
Solver starting - good luck!

Initial state:
  Body  1
    density:          1.000000
    shape axes ratio: (1.000000, 1.000000, 0.125000)
    initial KE ratio: 0.500000
    position:         (-4.000000, 0.000000, 0.000000)
    velocity:         (-9.670721, -4.354651, -2.717793)
    angular velocity: (-2.010860, 0.239196, 5.947911)
    orientation:      (w=0.511199, i=-0.424529, j=0.707925, k=0.239360)
  Body  2
    density:          1.000000
    shape axes ratio: (1.000000, 1.000000, 0.125000)
    initial KE ratio: 0.500000
    position:         (4.000000, 0.000000, 0.000000)
    velocity:         (-7.158771, -3.223539, -2.011852)
    angular velocity: (-4.018625, 4.728097, 0.987001)
    orientation:      (w=-0.864643, i=-0.347723, j=-0.263530, k=-0.249063)

Preparing first step: implicit scheme, no bootstrap passes required.
First step may take longer than later steps.

First step completed in 0.360 s.

Step   100/2000    5.0% | t 5.000 | ETA 10m 26s | step 0.39s | KE 1698.2635 | drift -0.24% | fluid 834.7181 | solid 863.5454
  Impulse FP iterations last/mean/max 26/22.21/30
Step   200/2000   10.0% | t 10.000 | ETA 9m 47s | step 0.33s | KE 1692.3816 | drift -0.58% | fluid 1254.0689 | solid 438.3127
  Impulse FP iterations last/mean/max 21/21.80/30
Step   300/2000   15.0% | t 15.000 | ETA 9m 14s | step 0.29s | KE 1697.9353 | drift -0.26% | fluid 1023.0065 | solid 674.9288
  Impulse FP iterations last/mean/max 19/21.81/30
Step   400/2000   20.0% | t 20.000 | ETA 8m 40s | step 0.33s | KE 1698.5529 | drift -0.22% | fluid 892.0170 | solid 806.5359
  Impulse FP iterations last/mean/max 22/21.80/30
Step   500/2000   25.0% | t 25.000 | ETA 7m 55s | step 0.25s | KE 1690.9773 | drift -0.67% | fluid 1289.7125 | solid 401.2648
  Impulse FP iterations last/mean/max 22/21.77/30
Step   600/2000   30.0% | t 30.000 | ETA 6m 59s | step 0.18s | KE 1698.5036 | drift -0.23% | fluid 921.9890 | solid 776.5146
  Impulse FP iterations last/mean/max 19/21.72/30
Step   700/2000   35.0% | t 35.000 | ETA 6m 10s | step 0.22s | KE 1698.3037 | drift -0.24% | fluid 984.6298 | solid 713.6739
  Impulse FP iterations last/mean/max 24/21.67/30
Step   800/2000   40.0% | t 40.000 | ETA 5m 29s | step 0.19s | KE 1691.7436 | drift -0.62% | fluid 1272.4417 | solid 419.3020
  Impulse FP iterations last/mean/max 20/21.59/30
Step   900/2000   45.0% | t 45.000 | ETA 4m 52s | step 0.20s | KE 1698.3293 | drift -0.24% | fluid 851.0430 | solid 847.2863
  Impulse FP iterations last/mean/max 22/21.62/30
Step  1000/2000   50.0% | t 50.000 | ETA 4m 19s | step 0.20s | KE 1696.8365 | drift -0.32% | fluid 1092.8818 | solid 603.9548
  Impulse FP iterations last/mean/max 21/21.60/30
Step  1100/2000   55.0% | t 55.000 | ETA 3m 49s | step 0.27s | KE 1694.1211 | drift -0.48% | fluid 1206.5020 | solid 487.6191
  Impulse FP iterations last/mean/max 30/21.65/30
Step  1200/2000   60.0% | t 60.000 | ETA 3m 20s | step 0.20s | KE 1698.1911 | drift -0.24% | fluid 824.6066 | solid 873.5845
  Impulse FP iterations last/mean/max 21/21.66/30
Step  1300/2000   65.0% | t 65.000 | ETA 2m 52s | step 0.20s | KE 1694.3047 | drift -0.47% | fluid 1193.0196 | solid 501.2851
  Impulse FP iterations last/mean/max 21/21.63/30
Step  1400/2000   70.0% | t 70.000 | ETA 2m 25s | step 0.17s | KE 1696.5995 | drift -0.34% | fluid 1107.7270 | solid 588.8725
  Impulse FP iterations last/mean/max 18/21.59/30
Step  1500/2000   75.0% | t 75.000 | ETA 1m 59s | step 0.22s | KE 1698.4029 | drift -0.23% | fluid 847.4547 | solid 850.9482
  Impulse FP iterations last/mean/max 24/21.58/30
Step  1600/2000   80.0% | t 80.000 | ETA 1m 34s | step 0.21s | KE 1691.9359 | drift -0.61% | fluid 1262.4322 | solid 429.5037
  Impulse FP iterations last/mean/max 23/21.56/30
Step  1700/2000   85.0% | t 85.000 | ETA 1m 10s | step 0.22s | KE 1698.0347 | drift -0.25% | fluid 999.2502 | solid 698.7845
  Impulse FP iterations last/mean/max 25/21.57/30
Step  1800/2000   90.0% | t 90.000 | ETA 46s | step 0.19s | KE 1698.5872 | drift -0.22% | fluid 914.1980 | solid 784.3892
  Impulse FP iterations last/mean/max 20/21.56/30
Step  1900/2000   95.0% | t 95.000 | ETA 23s | step 0.24s | KE 1691.1765 | drift -0.66% | fluid 1285.1526 | solid 406.0239
  Impulse FP iterations last/mean/max 27/21.59/30
Solver finished successfully - good job!
Results saved successfully.

================== Run summary ==================
  Bodies:            2
  Triangles / nodes: 256 / 516
  Timesteps:         2000  (dt = 0.05)
  Simulated time:    0 -> 100
  First-step setup:  0.360 s
  Mean time/step:    0.2298 s  (excl. first step)
  Total wall time:   7m 39s
  Impulse FP iters last/mean/max: 19 / 21.587 / 30
  Approx impulse solves/step:     21.587
  Impulse start cache hits/direct: 1999 / 1
  Impulse global drift P/H:       1.882388e-9 / 4.410447e-4
  Impulse per-body max drift P/H: 2.294828e-9 / 7.106978e-4
  CPU cores:         256 available, 8 Rayon worker thread(s)
  Started:           2026-06-24 02:38:56
  Finished:          2026-06-24 02:46:36
  Output file:       /work/e643/e643/shared/multi_ellip/studies/departing_sphericity_sweep/runs/spheroid_oblate/homogeneous/spheroid_oblate_homogeneous_eps1_rho1_E0p5_sep8_run07_impulse_noproj/multiple_body_complete.dat
================================================
