
================ Simulation setup ================
  Run label:         /work/e643/e643/shared/multi_ellip/studies/two_body_paper_sweeps/runs/spheroid_1_0p7_0p7/spheroid_1_0p7_0p7_rho0p1_E30_sep5_run05_impulse_noproj/
  Started:           2026-06-24 02:15:02
  Input file:        /work/e643/e643/shared/multi_ellip/studies/two_body_paper_sweeps/runs/spheroid_1_0p7_0p7/spheroid_1_0p7_0p7_rho0p1_E30_sep5_run05_impulse_noproj/input.txt
  Output file:       /work/e643/e643/shared/multi_ellip/studies/two_body_paper_sweeps/runs/spheroid_1_0p7_0p7/spheroid_1_0p7_0p7_rho0p1_E30_sep5_run05_impulse_noproj/multiple_body_complete.dat
  Bodies:            2
  Fluid density:     1
  Mesh:              ndiv 2 -> 256 triangles / 516 nodes
  Simulated time:    0 -> 100  (dt = 0.05, ~2000 steps)
  Output cadence:    every 1 step(s)
  Output rows:       ~2001
  Progress cadence:  every 100 step(s)
  CPU cores:         256 available, 8 Rayon worker thread(s)
  Strong coupling:   disabled
  Impulse scheme:    enabled
  Hamiltonian step:  disabled
  Hamiltonian midpt: disabled
  Variational step:  disabled
  Energy projection: disabled
  Projection particular metric: Euclidean
  Fluid KE gradient: disabled  (eps = 0.001, scale = 1, linear = 1, angular = 1)
  Fluid KE discrete gradient: disabled
  Impulse pair metric correction: disabled  (mode = pair discrete-gradient, cutoff = all pairs, inner/outer = 0/0, eps = 0.001, linear scale = 1, angular scale = 0)
  Impulse metric correction: disabled  (internal load constraint = disabled)
  Impulse variational defect probe: disabled
  Impulse quadratic pressure: disabled  (scale = 1)
  Added-mass stab:   disabled
  Exact BEM geometry: disabled
  Exact singular BEM: disabled
  Legacy singular SLP diagnostic: disabled
  Phi-dot blend:     0 (off)

  Solver guidance:
    - Strong coupling: use for stiff close-coupled runs; slower but more implicit.
    - Impulse scheme: use when impulse/momentum conservation or KE drift is the focus. Recommended.
    - Added-mass stab: use for higher mesh counts (ndiv > 3) to preserve stability - deprecated.
================================================
Solver starting - good luck!

Initial state:
  Body  1
    density:          0.100000
    shape axes ratio: (1.000000, 0.700000, 0.700000)
    initial KE ratio: 30.000000
    position:         (-2.500000, 0.000000, 0.000000)
    velocity:         (-0.147565, -0.711469, 0.249746)
    angular velocity: (2.724537, -3.949927, -4.056278)
    orientation:      (w=-0.276205, i=-0.402799, j=-0.791652, k=0.367084)
  Body  2
    density:          0.100000
    shape axes ratio: (1.000000, 0.700000, 0.700000)
    initial KE ratio: 30.000000
    position:         (2.500000, 0.000000, 0.000000)
    velocity:         (-0.144631, -0.697323, 0.244780)
    angular velocity: (3.416408, 3.771601, 3.685322)
    orientation:      (w=0.825148, i=-0.562894, j=0.019325, k=-0.043675)

Preparing first step: implicit scheme, no bootstrap passes required.
First step may take longer than later steps.

First step completed in 0.298 s.

Step   100/2000    5.0% | t 5.000 | ETA 6m 21s | step 0.18s | KE 15.0233 | drift -0.26% | fluid 7.3314 | solid 7.6920
  Impulse FP iterations last/mean/max 15/15.40/17
Step   200/2000   10.0% | t 10.000 | ETA 5m 52s | step 0.19s | KE 15.0705 | drift +0.05% | fluid 7.3052 | solid 7.7653
  Impulse FP iterations last/mean/max 15/15.31/17
Step   300/2000   15.0% | t 15.000 | ETA 5m 22s | step 0.17s | KE 15.1770 | drift +0.76% | fluid 7.4283 | solid 7.7487
  Impulse FP iterations last/mean/max 15/15.27/17
Step   400/2000   20.0% | t 20.000 | ETA 4m 57s | step 0.19s | KE 15.2421 | drift +1.19% | fluid 7.3386 | solid 7.9036
  Impulse FP iterations last/mean/max 16/15.23/17
Step   500/2000   25.0% | t 25.000 | ETA 4m 37s | step 0.18s | KE 15.3027 | drift +1.59% | fluid 7.4460 | solid 7.8568
  Impulse FP iterations last/mean/max 15/15.18/17
Step   600/2000   30.0% | t 30.000 | ETA 4m 16s | step 0.20s | KE 15.3271 | drift +1.76% | fluid 7.4275 | solid 7.8996
  Impulse FP iterations last/mean/max 16/15.14/17
Step   700/2000   35.0% | t 35.000 | ETA 3m 56s | step 0.18s | KE 15.3234 | drift +1.73% | fluid 7.4493 | solid 7.8741
  Impulse FP iterations last/mean/max 15/15.05/17
Step   800/2000   40.0% | t 40.000 | ETA 3m 37s | step 0.17s | KE 15.2920 | drift +1.52% | fluid 7.3572 | solid 7.9348
  Impulse FP iterations last/mean/max 14/14.96/17
Step   900/2000   45.0% | t 45.000 | ETA 3m 18s | step 0.17s | KE 15.3011 | drift +1.58% | fluid 7.4837 | solid 7.8174
  Impulse FP iterations last/mean/max 15/14.89/17
Step  1000/2000   50.0% | t 50.000 | ETA 2m 59s | step 0.17s | KE 15.2982 | drift +1.56% | fluid 7.4310 | solid 7.8672
  Impulse FP iterations last/mean/max 15/14.84/17
Step  1100/2000   55.0% | t 55.000 | ETA 2m 40s | step 0.16s | KE 15.2891 | drift +1.50% | fluid 7.3726 | solid 7.9165
  Impulse FP iterations last/mean/max 15/14.78/17
Step  1200/2000   60.0% | t 60.000 | ETA 2m 21s | step 0.18s | KE 15.2881 | drift +1.50% | fluid 7.4075 | solid 7.8806
  Impulse FP iterations last/mean/max 14/14.74/17
Step  1300/2000   65.0% | t 65.000 | ETA 2m 4s | step 0.17s | KE 15.3046 | drift +1.61% | fluid 7.5007 | solid 7.8039
  Impulse FP iterations last/mean/max 14/14.70/17
Step  1400/2000   70.0% | t 70.000 | ETA 1m 46s | step 0.16s | KE 15.2960 | drift +1.55% | fluid 7.3869 | solid 7.9092
  Impulse FP iterations last/mean/max 14/14.67/17
Step  1500/2000   75.0% | t 75.000 | ETA 1m 28s | step 0.15s | KE 15.2904 | drift +1.51% | fluid 7.3583 | solid 7.9321
  Impulse FP iterations last/mean/max 14/14.63/17
Step  1600/2000   80.0% | t 80.000 | ETA 1m 11s | step 0.19s | KE 15.3012 | drift +1.58% | fluid 7.4847 | solid 7.8165
  Impulse FP iterations last/mean/max 14/14.60/17
Step  1700/2000   85.0% | t 85.000 | ETA 53s | step 0.17s | KE 15.2946 | drift +1.54% | fluid 7.4522 | solid 7.8425
  Impulse FP iterations last/mean/max 14/14.57/17
Step  1800/2000   90.0% | t 90.000 | ETA 35s | step 0.17s | KE 15.2855 | drift +1.48% | fluid 7.3599 | solid 7.9255
  Impulse FP iterations last/mean/max 13/14.53/17
Step  1900/2000   95.0% | t 95.000 | ETA 17s | step 0.14s | KE 15.2894 | drift +1.50% | fluid 7.3906 | solid 7.8988
  Impulse FP iterations last/mean/max 14/14.50/17
Solver finished successfully - good job!
Results saved successfully.

================== Run summary ==================
  Bodies:            2
  Triangles / nodes: 256 / 516
  Timesteps:         2000  (dt = 0.05)
  Simulated time:    0 -> 100
  First-step setup:  0.298 s
  Mean time/step:    0.1732 s  (excl. first step)
  Total wall time:   5m 46s
  Impulse FP iters last/mean/max: 14 / 14.476 / 17
  Approx impulse solves/step:     14.477
  Impulse start cache hits/direct: 1999 / 1
  Impulse global drift P/H:       5.356612e-8 / 2.088196e-2
  Impulse per-body max drift P/H: 1.031194e-7 / 8.124250e-3
  CPU cores:         256 available, 8 Rayon worker thread(s)
  Started:           2026-06-24 02:15:02
  Finished:          2026-06-24 02:20:49
  Output file:       /work/e643/e643/shared/multi_ellip/studies/two_body_paper_sweeps/runs/spheroid_1_0p7_0p7/spheroid_1_0p7_0p7_rho0p1_E30_sep5_run05_impulse_noproj/multiple_body_complete.dat
================================================
