
================ Simulation setup ================
  Run label:         /work/e643/e643/shared/multi_ellip/studies/two_body_paper_sweeps/runs/spheroid_1_0p7_0p7/spheroid_1_0p7_0p7_rho1_E1p5_sep8_run03_impulse_noproj/
  Started:           2026-06-24 01:34:39
  Input file:        /work/e643/e643/shared/multi_ellip/studies/two_body_paper_sweeps/runs/spheroid_1_0p7_0p7/spheroid_1_0p7_0p7_rho1_E1p5_sep8_run03_impulse_noproj/input.txt
  Output file:       /work/e643/e643/shared/multi_ellip/studies/two_body_paper_sweeps/runs/spheroid_1_0p7_0p7/spheroid_1_0p7_0p7_rho1_E1p5_sep8_run03_impulse_noproj/multiple_body_complete.dat
  Bodies:            2
  Fluid density:     1
  Mesh:              ndiv 2 -> 256 triangles / 516 nodes
  Simulated time:    0 -> 100  (dt = 0.05, ~2000 steps)
  Output cadence:    every 1 step(s)
  Output rows:       ~2001
  Progress cadence:  every 100 step(s)
  CPU cores:         256 available, 8 Rayon worker thread(s)
  Strong coupling:   disabled
  Impulse scheme:    enabled
  Hamiltonian step:  disabled
  Hamiltonian midpt: disabled
  Variational step:  disabled
  Energy projection: disabled
  Projection particular metric: Euclidean
  Fluid KE gradient: disabled  (eps = 0.001, scale = 1, linear = 1, angular = 1)
  Fluid KE discrete gradient: disabled
  Impulse pair metric correction: disabled  (mode = pair discrete-gradient, cutoff = all pairs, inner/outer = 0/0, eps = 0.001, linear scale = 1, angular scale = 0)
  Impulse metric correction: disabled  (internal load constraint = disabled)
  Impulse variational defect probe: disabled
  Impulse quadratic pressure: disabled  (scale = 1)
  Added-mass stab:   disabled
  Exact BEM geometry: disabled
  Exact singular BEM: disabled
  Legacy singular SLP diagnostic: disabled
  Phi-dot blend:     0 (off)

  Solver guidance:
    - Strong coupling: use for stiff close-coupled runs; slower but more implicit.
    - Impulse scheme: use when impulse/momentum conservation or KE drift is the focus. Recommended.
    - Added-mass stab: use for higher mesh counts (ndiv > 3) to preserve stability - deprecated.
================================================
Solver starting - good luck!

Initial state:
  Body  1
    density:          1.000000
    shape axes ratio: (1.000000, 0.700000, 0.700000)
    initial KE ratio: 1.500000
    position:         (-4.000000, 0.000000, 0.000000)
    velocity:         (0.403345, 0.360877, 3.077717)
    angular velocity: (-5.107108, -2.474051, 2.697209)
    orientation:      (w=-0.329631, i=0.591336, j=-0.201482, k=0.707863)
  Body  2
    density:          1.000000
    shape axes ratio: (1.000000, 0.700000, 0.700000)
    initial KE ratio: 1.500000
    position:         (4.000000, 0.000000, 0.000000)
    velocity:         (0.458224, 0.409978, 3.496472)
    angular velocity: (-0.376523, -2.462778, 5.768134)
    orientation:      (w=-0.410825, i=0.281194, j=-0.160888, k=0.852214)

Preparing first step: implicit scheme, no bootstrap passes required.
First step may take longer than later steps.

First step completed in 0.287 s.

Step   100/2000    5.0% | t 5.000 | ETA 4m 24s | step 0.14s | KE 146.3793 | drift -0.37% | fluid 31.8287 | solid 114.5505
  Impulse FP iterations last/mean/max 10/9.86/10
Step   200/2000   10.0% | t 10.000 | ETA 4m 10s | step 0.13s | KE 146.0599 | drift -0.58% | fluid 29.9286 | solid 116.1313
  Impulse FP iterations last/mean/max 9/9.79/10
Step   300/2000   15.0% | t 15.000 | ETA 3m 56s | step 0.14s | KE 145.0000 | drift -1.31% | fluid 32.7344 | solid 112.2657
  Impulse FP iterations last/mean/max 10/9.78/10
Step   400/2000   20.0% | t 20.000 | ETA 3m 42s | step 0.14s | KE 144.7019 | drift -1.51% | fluid 31.0778 | solid 113.6241
  Impulse FP iterations last/mean/max 10/9.77/10
Step   500/2000   25.0% | t 25.000 | ETA 3m 28s | step 0.15s | KE 144.4252 | drift -1.70% | fluid 29.5228 | solid 114.9025
  Impulse FP iterations last/mean/max 10/9.76/10
Step   600/2000   30.0% | t 30.000 | ETA 3m 14s | step 0.13s | KE 144.0690 | drift -1.94% | fluid 32.8594 | solid 111.2095
  Impulse FP iterations last/mean/max 9/9.73/10
Step   700/2000   35.0% | t 35.000 | ETA 3m 0s | step 0.14s | KE 144.0509 | drift -1.95% | fluid 31.4939 | solid 112.5571
  Impulse FP iterations last/mean/max 10/9.72/10
Step   800/2000   40.0% | t 40.000 | ETA 2m 46s | step 0.12s | KE 143.9678 | drift -2.01% | fluid 29.7190 | solid 114.2488
  Impulse FP iterations last/mean/max 9/9.70/10
Step   900/2000   45.0% | t 45.000 | ETA 2m 32s | step 0.13s | KE 143.8035 | drift -2.12% | fluid 32.6548 | solid 111.1487
  Impulse FP iterations last/mean/max 9/9.69/10
Step  1000/2000   50.0% | t 50.000 | ETA 2m 18s | step 0.12s | KE 143.7684 | drift -2.14% | fluid 32.0166 | solid 111.7518
  Impulse FP iterations last/mean/max 9/9.69/10
Step  1100/2000   55.0% | t 55.000 | ETA 2m 4s | step 0.13s | KE 143.8209 | drift -2.11% | fluid 29.1278 | solid 114.6931
  Impulse FP iterations last/mean/max 10/9.68/10
Step  1200/2000   60.0% | t 60.000 | ETA 1m 50s | step 0.14s | KE 143.7617 | drift -2.15% | fluid 31.2147 | solid 112.5470
  Impulse FP iterations last/mean/max 10/9.68/10
Step  1300/2000   65.0% | t 65.000 | ETA 1m 36s | step 0.14s | KE 143.6389 | drift -2.23% | fluid 32.7456 | solid 110.8932
  Impulse FP iterations last/mean/max 10/9.68/10
Step  1400/2000   70.0% | t 70.000 | ETA 1m 22s | step 0.14s | KE 143.6961 | drift -2.19% | fluid 30.5148 | solid 113.1813
  Impulse FP iterations last/mean/max 10/9.66/10
Step  1500/2000   75.0% | t 75.000 | ETA 1m 9s | step 0.14s | KE 143.7504 | drift -2.16% | fluid 30.8423 | solid 112.9082
  Impulse FP iterations last/mean/max 10/9.66/10
Step  1600/2000   80.0% | t 80.000 | ETA 55s | step 0.14s | KE 143.6613 | drift -2.22% | fluid 32.1165 | solid 111.5447
  Impulse FP iterations last/mean/max 10/9.66/10
Step  1700/2000   85.0% | t 85.000 | ETA 41s | step 0.13s | KE 143.5956 | drift -2.26% | fluid 31.3403 | solid 112.2553
  Impulse FP iterations last/mean/max 9/9.66/10
Step  1800/2000   90.0% | t 90.000 | ETA 27s | step 0.14s | KE 143.6821 | drift -2.20% | fluid 30.9456 | solid 112.7365
  Impulse FP iterations last/mean/max 10/9.66/10
Step  1900/2000   95.0% | t 95.000 | ETA 13s | step 0.14s | KE 143.7238 | drift -2.17% | fluid 30.5883 | solid 113.1355
  Impulse FP iterations last/mean/max 10/9.65/10
Solver finished successfully - good job!
Results saved successfully.

================== Run summary ==================
  Bodies:            2
  Triangles / nodes: 256 / 516
  Timesteps:         2000  (dt = 0.05)
  Simulated time:    0 -> 100
  First-step setup:  0.287 s
  Mean time/step:    0.1373 s  (excl. first step)
  Total wall time:   4m 34s
  Impulse FP iters last/mean/max: 10 / 9.655 / 10
  Approx impulse solves/step:     9.655
  Impulse start cache hits/direct: 1999 / 1
  Impulse global drift P/H:       1.269588e-8 / 6.379751e-3
  Impulse per-body max drift P/H: 2.194870e-8 / 1.145476e-3
  CPU cores:         256 available, 8 Rayon worker thread(s)
  Started:           2026-06-24 01:34:39
  Finished:          2026-06-24 01:39:14
  Output file:       /work/e643/e643/shared/multi_ellip/studies/two_body_paper_sweeps/runs/spheroid_1_0p7_0p7/spheroid_1_0p7_0p7_rho1_E1p5_sep8_run03_impulse_noproj/multiple_body_complete.dat
================================================
