
================ Simulation setup ================
  Run label:         /work/e643/e643/shared/multi_ellip/studies/two_body_paper_sweeps/runs/spheroid_1_0p7_0p7/spheroid_1_0p7_0p7_rho10_E30_sep8_run03_impulse_noproj/
  Started:           2026-06-24 01:21:54
  Input file:        /work/e643/e643/shared/multi_ellip/studies/two_body_paper_sweeps/runs/spheroid_1_0p7_0p7/spheroid_1_0p7_0p7_rho10_E30_sep8_run03_impulse_noproj/input.txt
  Output file:       /work/e643/e643/shared/multi_ellip/studies/two_body_paper_sweeps/runs/spheroid_1_0p7_0p7/spheroid_1_0p7_0p7_rho10_E30_sep8_run03_impulse_noproj/multiple_body_complete.dat
  Bodies:            2
  Fluid density:     1
  Mesh:              ndiv 2 -> 256 triangles / 516 nodes
  Simulated time:    0 -> 100  (dt = 0.05, ~2000 steps)
  Output cadence:    every 1 step(s)
  Output rows:       ~2001
  Progress cadence:  every 100 step(s)
  CPU cores:         256 available, 8 Rayon worker thread(s)
  Strong coupling:   disabled
  Impulse scheme:    enabled
  Hamiltonian step:  disabled
  Hamiltonian midpt: disabled
  Variational step:  disabled
  Energy projection: disabled
  Projection particular metric: Euclidean
  Fluid KE gradient: disabled  (eps = 0.001, scale = 1, linear = 1, angular = 1)
  Fluid KE discrete gradient: disabled
  Impulse pair metric correction: disabled  (mode = pair discrete-gradient, cutoff = all pairs, inner/outer = 0/0, eps = 0.001, linear scale = 1, angular scale = 0)
  Impulse metric correction: disabled  (internal load constraint = disabled)
  Impulse variational defect probe: disabled
  Impulse quadratic pressure: disabled  (scale = 1)
  Added-mass stab:   disabled
  Exact BEM geometry: disabled
  Exact singular BEM: disabled
  Legacy singular SLP diagnostic: disabled
  Phi-dot blend:     0 (off)

  Solver guidance:
    - Strong coupling: use for stiff close-coupled runs; slower but more implicit.
    - Impulse scheme: use when impulse/momentum conservation or KE drift is the focus. Recommended.
    - Added-mass stab: use for higher mesh counts (ndiv > 3) to preserve stability - deprecated.
================================================
Solver starting - good luck!

Initial state:
  Body  1
    density:          10.000000
    shape axes ratio: (1.000000, 0.700000, 0.700000)
    initial KE ratio: 30.000000
    position:         (-4.000000, 0.000000, 0.000000)
    velocity:         (0.252287, -0.504265, 0.532976)
    angular velocity: (2.300412, -5.000640, -3.029871)
    orientation:      (w=-0.023951, i=-0.984121, j=0.003585, k=-0.175841)
  Body  2
    density:          10.000000
    shape axes ratio: (1.000000, 0.700000, 0.700000)
    initial KE ratio: 30.000000
    position:         (4.000000, 0.000000, 0.000000)
    velocity:         (0.248720, -0.497136, 0.525441)
    angular velocity: (2.895068, 5.269445, -1.824816)
    orientation:      (w=-0.357498, i=-0.605714, j=0.521996, k=0.482521)

Preparing first step: implicit scheme, no bootstrap passes required.
First step may take longer than later steps.

First step completed in 0.229 s.

Step   100/2000    5.0% | t 5.000 | ETA 2m 38s | step 0.09s | KE 740.3993 | drift -0.01% | fluid 6.1161 | solid 734.2832
  Impulse FP iterations last/mean/max 7/6.96/8
Step   200/2000   10.0% | t 10.000 | ETA 2m 44s | step 0.10s | KE 740.3100 | drift -0.02% | fluid 6.1502 | solid 734.1598
  Impulse FP iterations last/mean/max 7/6.99/8
Step   300/2000   15.0% | t 15.000 | ETA 2m 39s | step 0.10s | KE 740.2254 | drift -0.04% | fluid 6.1019 | solid 734.1235
  Impulse FP iterations last/mean/max 7/6.99/8
Step   400/2000   20.0% | t 20.000 | ETA 2m 32s | step 0.10s | KE 740.1440 | drift -0.05% | fluid 6.0224 | solid 734.1217
  Impulse FP iterations last/mean/max 7/6.99/8
Step   500/2000   25.0% | t 25.000 | ETA 2m 24s | step 0.11s | KE 740.0640 | drift -0.06% | fluid 5.9467 | solid 734.1173
  Impulse FP iterations last/mean/max 7/6.99/8
Step   600/2000   30.0% | t 30.000 | ETA 2m 15s | step 0.08s | KE 739.9836 | drift -0.07% | fluid 5.8762 | solid 734.1074
  Impulse FP iterations last/mean/max 6/6.99/8
Step   700/2000   35.0% | t 35.000 | ETA 2m 6s | step 0.09s | KE 739.9033 | drift -0.08% | fluid 5.7960 | solid 734.1073
  Impulse FP iterations last/mean/max 6/6.99/8
Step   800/2000   40.0% | t 40.000 | ETA 1m 56s | step 0.10s | KE 739.8251 | drift -0.09% | fluid 5.7102 | solid 734.1149
  Impulse FP iterations last/mean/max 7/6.99/8
Step   900/2000   45.0% | t 45.000 | ETA 1m 47s | step 0.10s | KE 739.7500 | drift -0.10% | fluid 5.6573 | solid 734.0927
  Impulse FP iterations last/mean/max 7/6.99/8
Step  1000/2000   50.0% | t 50.000 | ETA 1m 37s | step 0.10s | KE 739.6767 | drift -0.11% | fluid 5.6833 | solid 733.9934
  Impulse FP iterations last/mean/max 8/7.00/8
Step  1100/2000   55.0% | t 55.000 | ETA 1m 27s | step 0.09s | KE 739.6038 | drift -0.12% | fluid 5.7944 | solid 733.8094
  Impulse FP iterations last/mean/max 7/7.00/8
Step  1200/2000   60.0% | t 60.000 | ETA 1m 16s | step 0.10s | KE 739.5337 | drift -0.13% | fluid 5.9367 | solid 733.5970
  Impulse FP iterations last/mean/max 8/7.00/8
Step  1300/2000   65.0% | t 65.000 | ETA 1m 6s | step 0.10s | KE 739.4700 | drift -0.14% | fluid 6.0268 | solid 733.4432
  Impulse FP iterations last/mean/max 7/7.00/8
Step  1400/2000   70.0% | t 70.000 | ETA 57s | step 0.09s | KE 739.4139 | drift -0.15% | fluid 6.0113 | solid 733.4026
  Impulse FP iterations last/mean/max 7/7.00/8
Step  1500/2000   75.0% | t 75.000 | ETA 47s | step 0.10s | KE 739.3632 | drift -0.15% | fluid 5.9079 | solid 733.4553
  Impulse FP iterations last/mean/max 7/7.00/8
Step  1600/2000   80.0% | t 80.000 | ETA 38s | step 0.08s | KE 739.3145 | drift -0.16% | fluid 5.7961 | solid 733.5184
  Impulse FP iterations last/mean/max 6/7.00/8
Step  1700/2000   85.0% | t 85.000 | ETA 28s | step 0.10s | KE 739.2640 | drift -0.17% | fluid 5.7604 | solid 733.5036
  Impulse FP iterations last/mean/max 7/7.00/8
Step  1800/2000   90.0% | t 90.000 | ETA 19s | step 0.10s | KE 739.2094 | drift -0.17% | fluid 5.8259 | solid 733.3836
  Impulse FP iterations last/mean/max 7/7.00/8
Step  1900/2000   95.0% | t 95.000 | ETA 9s | step 0.09s | KE 739.1533 | drift -0.18% | fluid 5.9387 | solid 733.2146
  Impulse FP iterations last/mean/max 7/7.00/8
Solver finished successfully - good job!
Results saved successfully.

================== Run summary ==================
  Bodies:            2
  Triangles / nodes: 256 / 516
  Timesteps:         2000  (dt = 0.05)
  Simulated time:    0 -> 100
  First-step setup:  0.229 s
  Mean time/step:    0.0962 s  (excl. first step)
  Total wall time:   3m 12s
  Impulse FP iters last/mean/max: 7 / 6.999 / 8
  Approx impulse solves/step:     6.999
  Impulse start cache hits/direct: 1999 / 1
  Impulse global drift P/H:       1.109979e-8 / 3.806971e-3
  Impulse per-body max drift P/H: 1.423268e-8 / 5.009658e-3
  CPU cores:         256 available, 8 Rayon worker thread(s)
  Started:           2026-06-24 01:21:54
  Finished:          2026-06-24 01:25:07
  Output file:       /work/e643/e643/shared/multi_ellip/studies/two_body_paper_sweeps/runs/spheroid_1_0p7_0p7/spheroid_1_0p7_0p7_rho10_E30_sep8_run03_impulse_noproj/multiple_body_complete.dat
================================================
