
================ Simulation setup ================
  Run label:         /work/e643/e643/shared/multi_ellip/studies/two_body_paper_sweeps/runs/ellipsoid_1_0p8_0p6/ellipsoid_1_0p8_0p6_rho4_E11_sep3_run04_impulse_noproj/
  Started:           2026-06-24 01:29:11
  Input file:        /work/e643/e643/shared/multi_ellip/studies/two_body_paper_sweeps/runs/ellipsoid_1_0p8_0p6/ellipsoid_1_0p8_0p6_rho4_E11_sep3_run04_impulse_noproj/input.txt
  Output file:       /work/e643/e643/shared/multi_ellip/studies/two_body_paper_sweeps/runs/ellipsoid_1_0p8_0p6/ellipsoid_1_0p8_0p6_rho4_E11_sep3_run04_impulse_noproj/multiple_body_complete.dat
  Bodies:            2
  Fluid density:     1
  Mesh:              ndiv 2 -> 256 triangles / 516 nodes
  Simulated time:    0 -> 100  (dt = 0.05, ~2000 steps)
  Output cadence:    every 1 step(s)
  Output rows:       ~2001
  Progress cadence:  every 100 step(s)
  CPU cores:         256 available, 8 Rayon worker thread(s)
  Strong coupling:   disabled
  Impulse scheme:    enabled
  Hamiltonian step:  disabled
  Hamiltonian midpt: disabled
  Variational step:  disabled
  Energy projection: disabled
  Projection particular metric: Euclidean
  Fluid KE gradient: disabled  (eps = 0.001, scale = 1, linear = 1, angular = 1)
  Fluid KE discrete gradient: disabled
  Impulse pair metric correction: disabled  (mode = pair discrete-gradient, cutoff = all pairs, inner/outer = 0/0, eps = 0.001, linear scale = 1, angular scale = 0)
  Impulse metric correction: disabled  (internal load constraint = disabled)
  Impulse variational defect probe: disabled
  Impulse quadratic pressure: disabled  (scale = 1)
  Added-mass stab:   disabled
  Exact BEM geometry: disabled
  Exact singular BEM: disabled
  Legacy singular SLP diagnostic: disabled
  Phi-dot blend:     0 (off)

  Solver guidance:
    - Strong coupling: use for stiff close-coupled runs; slower but more implicit.
    - Impulse scheme: use when impulse/momentum conservation or KE drift is the focus. Recommended.
    - Added-mass stab: use for higher mesh counts (ndiv > 3) to preserve stability - deprecated.
================================================
Solver starting - good luck!

Initial state:
  Body  1
    density:          4.000000
    shape axes ratio: (1.000000, 0.800000, 0.600000)
    initial KE ratio: 11.000000
    position:         (-1.500000, 0.000000, 0.000000)
    velocity:         (0.805336, 0.782540, -0.583644)
    angular velocity: (1.103915, -5.965200, 1.635904)
    orientation:      (w=0.679792, i=-0.294251, j=0.477044, k=0.472999)
  Body  2
    density:          4.000000
    shape axes ratio: (1.000000, 0.800000, 0.600000)
    initial KE ratio: 11.000000
    position:         (1.500000, 0.000000, 0.000000)
    velocity:         (0.761465, 0.739910, -0.551849)
    angular velocity: (3.888103, -4.924974, 0.325122)
    orientation:      (w=-0.457981, i=-0.762822, j=0.295822, k=0.347628)

Preparing first step: implicit scheme, no bootstrap passes required.
First step may take longer than later steps.

First step completed in 0.327 s.

Step   100/2000    5.0% | t 5.000 | ETA 4m 7s | step 0.12s | KE 301.7467 | drift +2.90% | fluid 10.7895 | solid 290.9572
  Impulse FP iterations last/mean/max 9/8.93/9
Step   200/2000   10.0% | t 10.000 | ETA 3m 54s | step 0.12s | KE 310.0007 | drift +5.72% | fluid 7.7635 | solid 302.2372
  Impulse FP iterations last/mean/max 8/8.91/9
Step   300/2000   15.0% | t 15.000 | ETA 3m 43s | step 0.13s | KE 321.0257 | drift +9.48% | fluid 12.8243 | solid 308.2014
  Impulse FP iterations last/mean/max 9/8.93/9
Step   400/2000   20.0% | t 20.000 | ETA 3m 32s | step 0.13s | KE 331.1006 | drift +12.91% | fluid 10.4477 | solid 320.6529
  Impulse FP iterations last/mean/max 9/8.94/10
Step   500/2000   25.0% | t 25.000 | ETA 3m 22s | step 0.17s | KE 337.0848 | drift +14.95% | fluid 13.7918 | solid 323.2930
  Impulse FP iterations last/mean/max 10/8.97/11
Step   600/2000   30.0% | t 30.000 | ETA 3m 8s | step 0.12s | KE 339.1006 | drift +15.64% | fluid 13.7617 | solid 325.3389
  Impulse FP iterations last/mean/max 9/9.08/30
Step   700/2000   35.0% | t 35.000 | ETA 2m 52s | step 0.13s | KE 340.1606 | drift +16.00% | fluid 13.8224 | solid 326.3382
  Impulse FP iterations last/mean/max 9/9.06/30
Step   800/2000   40.0% | t 40.000 | ETA 2m 37s | step 0.11s | KE 340.2295 | drift +16.02% | fluid 11.9159 | solid 328.3136
  Impulse FP iterations last/mean/max 9/9.04/30
Step   900/2000   45.0% | t 45.000 | ETA 2m 24s | step 0.13s | KE 339.9261 | drift +15.92% | fluid 10.1481 | solid 329.7780
  Impulse FP iterations last/mean/max 9/9.03/30
Step  1000/2000   50.0% | t 50.000 | ETA 2m 10s | step 0.12s | KE 339.7460 | drift +15.86% | fluid 8.2076 | solid 331.5384
  Impulse FP iterations last/mean/max 9/9.01/30
Step  1100/2000   55.0% | t 55.000 | ETA 1m 57s | step 0.13s | KE 339.5944 | drift +15.81% | fluid 9.8877 | solid 329.7067
  Impulse FP iterations last/mean/max 9/9.00/30
Step  1200/2000   60.0% | t 60.000 | ETA 1m 44s | step 0.14s | KE 339.5687 | drift +15.80% | fluid 11.8743 | solid 327.6944
  Impulse FP iterations last/mean/max 9/8.98/30
Step  1300/2000   65.0% | t 65.000 | ETA 1m 30s | step 0.13s | KE 339.5375 | drift +15.79% | fluid 13.5495 | solid 325.9881
  Impulse FP iterations last/mean/max 9/8.97/30
Step  1400/2000   70.0% | t 70.000 | ETA 1m 17s | step 0.12s | KE 339.5798 | drift +15.80% | fluid 13.9954 | solid 325.5844
  Impulse FP iterations last/mean/max 8/8.96/30
Step  1500/2000   75.0% | t 75.000 | ETA 1m 4s | step 0.14s | KE 339.5701 | drift +15.80% | fluid 15.0138 | solid 324.5563
  Impulse FP iterations last/mean/max 9/8.94/30
Step  1600/2000   80.0% | t 80.000 | ETA 51s | step 0.13s | KE 339.6591 | drift +15.83% | fluid 14.1661 | solid 325.4930
  Impulse FP iterations last/mean/max 9/8.92/30
Step  1700/2000   85.0% | t 85.000 | ETA 38s | step 0.13s | KE 339.7860 | drift +15.87% | fluid 11.1411 | solid 328.6449
  Impulse FP iterations last/mean/max 9/8.90/30
Step  1800/2000   90.0% | t 90.000 | ETA 25s | step 0.11s | KE 339.8056 | drift +15.88% | fluid 9.7754 | solid 330.0302
  Impulse FP iterations last/mean/max 8/8.89/30
Step  1900/2000   95.0% | t 95.000 | ETA 12s | step 0.08s | KE 339.9057 | drift +15.91% | fluid 9.1130 | solid 330.7927
  Impulse FP iterations last/mean/max 9/8.88/30
Solver finished successfully - good job!
Results saved successfully.

================== Run summary ==================
  Bodies:            2
  Triangles / nodes: 256 / 516
  Timesteps:         2000  (dt = 0.05)
  Simulated time:    0 -> 100
  First-step setup:  0.327 s
  Mean time/step:    0.1248 s  (excl. first step)
  Total wall time:   4m 9s
  Impulse FP iters last/mean/max: 9 / 8.870 / 30
  Approx impulse solves/step:     8.870
  Impulse start cache hits/direct: 1999 / 1
  Impulse global drift P/H:       1.896571e-2 / 3.533114e-1
  Impulse per-body max drift P/H: 3.405111e-2 / 6.520277e-1
  CPU cores:         256 available, 8 Rayon worker thread(s)
  Started:           2026-06-24 01:29:11
  Finished:          2026-06-24 01:33:21
  Output file:       /work/e643/e643/shared/multi_ellip/studies/two_body_paper_sweeps/runs/ellipsoid_1_0p8_0p6/ellipsoid_1_0p8_0p6_rho4_E11_sep3_run04_impulse_noproj/multiple_body_complete.dat
================================================
