
================ Simulation setup ================
  Run label:         /work/e643/e643/shared/multi_ellip/studies/departing_sphericity_sweep/runs/triaxial/heterogeneous_sphere/triaxial_heterogeneous_sphere_eps1_rho1_E0p5_sep8_run07_impulse_noproj/
  Started:           2026-06-24 02:52:07
  Input file:        /work/e643/e643/shared/multi_ellip/studies/departing_sphericity_sweep/runs/triaxial/heterogeneous_sphere/triaxial_heterogeneous_sphere_eps1_rho1_E0p5_sep8_run07_impulse_noproj/input.txt
  Output file:       /work/e643/e643/shared/multi_ellip/studies/departing_sphericity_sweep/runs/triaxial/heterogeneous_sphere/triaxial_heterogeneous_sphere_eps1_rho1_E0p5_sep8_run07_impulse_noproj/multiple_body_complete.dat
  Bodies:            2
  Fluid density:     1
  Mesh:              ndiv 2 -> 256 triangles / 516 nodes
  Simulated time:    0 -> 100  (dt = 0.05, ~2000 steps)
  Output cadence:    every 1 step(s)
  Output rows:       ~2001
  Progress cadence:  every 100 step(s)
  CPU cores:         256 available, 8 Rayon worker thread(s)
  Strong coupling:   disabled
  Impulse scheme:    enabled
  Hamiltonian step:  disabled
  Hamiltonian midpt: disabled
  Variational step:  disabled
  Energy projection: disabled
  Projection particular metric: Euclidean
  Fluid KE gradient: disabled  (eps = 0.001, scale = 1, linear = 1, angular = 1)
  Fluid KE discrete gradient: disabled
  Impulse pair metric correction: disabled  (mode = pair discrete-gradient, cutoff = all pairs, inner/outer = 0/0, eps = 0.001, linear scale = 1, angular scale = 0)
  Impulse metric correction: disabled  (internal load constraint = disabled)
  Impulse variational defect probe: disabled
  Impulse quadratic pressure: disabled  (scale = 1)
  Added-mass stab:   disabled
  Exact BEM geometry: disabled
  Exact singular BEM: disabled
  Legacy singular SLP diagnostic: disabled
  Phi-dot blend:     0 (off)

  Solver guidance:
    - Strong coupling: use for stiff close-coupled runs; slower but more implicit.
    - Impulse scheme: use when impulse/momentum conservation or KE drift is the focus. Recommended.
    - Added-mass stab: use for higher mesh counts (ndiv > 3) to preserve stability - deprecated.
================================================
Solver starting - good luck!

Initial state:
  Body  1
    density:          1.000000
    shape axes ratio: (1.000000, 0.500000, 0.250000)
    initial KE ratio: 0.500000
    position:         (-4.000000, 0.000000, 0.000000)
    velocity:         (0.844767, -4.289365, -5.973317)
    angular velocity: (3.441474, -4.618232, 2.511295)
    orientation:      (w=0.799478, i=0.384198, j=0.318851, k=0.334007)
  Body  2
    density:          1.000000
    shape axes ratio: (1.000000, 1.000000, 1.000000)
    initial KE ratio: 0.500000
    position:         (4.000000, 0.000000, 0.000000)
    velocity:         (0.641357, -3.256538, -4.535014)
    angular velocity: (2.360328, 4.429872, -3.779352)
    orientation:      (w=0.020087, i=0.636448, j=0.166505, k=-0.752865)

Preparing first step: implicit scheme, no bootstrap passes required.
First step may take longer than later steps.

First step completed in 0.303 s.

Step   100/2000    5.0% | t 5.000 | ETA 5m 28s | step 0.16s | KE 394.2355 | drift +1.23% | fluid 84.9068 | solid 309.3287
  Impulse FP iterations last/mean/max 11/11.90/14
Step   200/2000   10.0% | t 10.000 | ETA 5m 10s | step 0.18s | KE 393.5554 | drift +1.06% | fluid 111.1716 | solid 282.3838
  Impulse FP iterations last/mean/max 11/11.72/14
Step   300/2000   15.0% | t 15.000 | ETA 4m 49s | step 0.15s | KE 394.6253 | drift +1.33% | fluid 84.2397 | solid 310.3855
  Impulse FP iterations last/mean/max 11/11.63/14
Step   400/2000   20.0% | t 20.000 | ETA 4m 25s | step 0.14s | KE 393.1317 | drift +0.95% | fluid 109.8632 | solid 283.2685
  Impulse FP iterations last/mean/max 11/11.59/14
Step   500/2000   25.0% | t 25.000 | ETA 4m 2s | step 0.14s | KE 392.2533 | drift +0.73% | fluid 125.7651 | solid 266.4882
  Impulse FP iterations last/mean/max 11/11.55/14
Step   600/2000   30.0% | t 30.000 | ETA 3m 47s | step 0.15s | KE 395.3038 | drift +1.51% | fluid 72.0943 | solid 323.2095
  Impulse FP iterations last/mean/max 11/11.53/14
Step   700/2000   35.0% | t 35.000 | ETA 3m 32s | step 0.17s | KE 395.9778 | drift +1.68% | fluid 85.5515 | solid 310.4263
  Impulse FP iterations last/mean/max 11/11.52/14
Step   800/2000   40.0% | t 40.000 | ETA 3m 17s | step 0.18s | KE 396.0866 | drift +1.71% | fluid 119.0156 | solid 277.0710
  Impulse FP iterations last/mean/max 12/11.53/14
Step   900/2000   45.0% | t 45.000 | ETA 3m 1s | step 0.15s | KE 395.9189 | drift +1.67% | fluid 116.0025 | solid 279.9164
  Impulse FP iterations last/mean/max 11/11.51/14
Step  1000/2000   50.0% | t 50.000 | ETA 2m 45s | step 0.17s | KE 395.5361 | drift +1.57% | fluid 87.7394 | solid 307.7967
  Impulse FP iterations last/mean/max 12/11.52/14
Step  1100/2000   55.0% | t 55.000 | ETA 2m 29s | step 0.18s | KE 397.0112 | drift +1.95% | fluid 107.6939 | solid 289.3173
  Impulse FP iterations last/mean/max 12/11.53/14
Step  1200/2000   60.0% | t 60.000 | ETA 2m 13s | step 0.17s | KE 398.2026 | drift +2.25% | fluid 105.7294 | solid 292.4732
  Impulse FP iterations last/mean/max 12/11.56/14
Step  1300/2000   65.0% | t 65.000 | ETA 1m 57s | step 0.18s | KE 397.7404 | drift +2.13% | fluid 103.3835 | solid 294.3569
  Impulse FP iterations last/mean/max 12/11.58/14
Step  1400/2000   70.0% | t 70.000 | ETA 1m 40s | step 0.13s | KE 396.8322 | drift +1.90% | fluid 74.9040 | solid 321.9283
  Impulse FP iterations last/mean/max 11/11.58/14
Step  1500/2000   75.0% | t 75.000 | ETA 1m 23s | step 0.17s | KE 396.3486 | drift +1.78% | fluid 97.9457 | solid 298.4029
  Impulse FP iterations last/mean/max 12/11.57/14
Step  1600/2000   80.0% | t 80.000 | ETA 1m 7s | step 0.16s | KE 397.0966 | drift +1.97% | fluid 71.5947 | solid 325.5020
  Impulse FP iterations last/mean/max 10/11.57/14
Step  1700/2000   85.0% | t 85.000 | ETA 50s | step 0.16s | KE 400.2214 | drift +2.77% | fluid 87.0898 | solid 313.1317
  Impulse FP iterations last/mean/max 11/11.56/14
Step  1800/2000   90.0% | t 90.000 | ETA 33s | step 0.17s | KE 396.7696 | drift +1.89% | fluid 94.0049 | solid 302.7647
  Impulse FP iterations last/mean/max 12/11.56/14
Step  1900/2000   95.0% | t 95.000 | ETA 16s | step 0.18s | KE 395.4159 | drift +1.54% | fluid 104.8830 | solid 290.5329
  Impulse FP iterations last/mean/max 12/11.55/14
Solver finished successfully - good job!
Results saved successfully.

================== Run summary ==================
  Bodies:            2
  Triangles / nodes: 256 / 516
  Timesteps:         2000  (dt = 0.05)
  Simulated time:    0 -> 100
  First-step setup:  0.303 s
  Mean time/step:    0.1676 s  (excl. first step)
  Total wall time:   5m 35s
  Impulse FP iters last/mean/max: 11 / 11.553 / 14
  Approx impulse solves/step:     11.554
  Impulse start cache hits/direct: 1999 / 1
  Impulse global drift P/H:       1.294858e-9 / 6.331113e-2
  Impulse per-body max drift P/H: 2.842000e-9 / 1.676208e-2
  CPU cores:         256 available, 8 Rayon worker thread(s)
  Started:           2026-06-24 02:52:07
  Finished:          2026-06-24 02:57:42
  Output file:       /work/e643/e643/shared/multi_ellip/studies/departing_sphericity_sweep/runs/triaxial/heterogeneous_sphere/triaxial_heterogeneous_sphere_eps1_rho1_E0p5_sep8_run07_impulse_noproj/multiple_body_complete.dat
================================================
