
================ Simulation setup ================
  Run label:         /work/e643/e643/shared/multi_ellip/studies/two_body_paper_sweeps/runs/spheroid_1_0p7_0p7/spheroid_1_0p7_0p7_rho10_E11_sep11_run01_impulse_noproj/
  Started:           2026-06-22 19:26:44
  Input file:        /work/e643/e643/shared/multi_ellip/studies/two_body_paper_sweeps/runs/spheroid_1_0p7_0p7/spheroid_1_0p7_0p7_rho10_E11_sep11_run01_impulse_noproj/input.txt
  Output file:       /work/e643/e643/shared/multi_ellip/studies/two_body_paper_sweeps/runs/spheroid_1_0p7_0p7/spheroid_1_0p7_0p7_rho10_E11_sep11_run01_impulse_noproj/multiple_body_complete.dat
  Bodies:            2
  Fluid density:     1
  Mesh:              ndiv 2 -> 256 triangles / 516 nodes
  Simulated time:    0 -> 100  (dt = 0.05, ~2000 steps)
  Output cadence:    every 1 step(s)
  Output rows:       ~2001
  Progress cadence:  every 100 step(s)
  CPU cores:         256 available, 8 Rayon worker thread(s)
  Strong coupling:   disabled
  Impulse scheme:    enabled
  Hamiltonian step:  disabled
  Hamiltonian midpt: disabled
  Variational step:  disabled
  Energy projection: disabled
  Projection particular metric: Euclidean
  Fluid KE gradient: disabled  (eps = 0.001, scale = 1, linear = 1, angular = 1)
  Fluid KE discrete gradient: disabled
  Impulse pair metric correction: disabled  (mode = pair discrete-gradient, cutoff = all pairs, inner/outer = 0/0, eps = 0.001, linear scale = 1, angular scale = 0)
  Impulse metric correction: disabled  (internal load constraint = disabled)
  Impulse variational defect probe: disabled
  Impulse quadratic pressure: disabled  (scale = 1)
  Added-mass stab:   disabled
  Exact BEM geometry: disabled
  Exact singular BEM: disabled
  Legacy singular SLP diagnostic: disabled
  Phi-dot blend:     0 (off)

  Solver guidance:
    - Strong coupling: use for stiff close-coupled runs; slower but more implicit.
    - Impulse scheme: use when impulse/momentum conservation or KE drift is the focus. Recommended.
    - Added-mass stab: use for higher mesh counts (ndiv > 3) to preserve stability - deprecated.
================================================
Solver starting - good luck!

Initial state:
  Body  1
    density:          10.000000
    shape axes ratio: (1.000000, 0.700000, 0.700000)
    initial KE ratio: 11.000000
    position:         (-5.500000, 0.000000, 0.000000)
    velocity:         (0.416926, 0.906847, 0.547081)
    angular velocity: (5.338945, -3.147993, 1.031613)
    orientation:      (w=0.447214, i=0.894427, j=0.000000, k=0.000000)
  Body  2
    density:          10.000000
    shape axes ratio: (1.000000, 0.700000, 0.700000)
    initial KE ratio: 11.000000
    position:         (5.500000, 0.000000, 0.000000)
    velocity:         (0.464990, 1.011390, 0.610149)
    angular velocity: (2.707299, 3.064658, -4.770411)
    orientation:      (w=0.707107, i=0.000000, j=0.707107, k=0.000000)

Preparing first step: implicit scheme, no bootstrap passes required.
First step may take longer than later steps.

First step completed in 0.221 s.

Step   100/2000    5.0% | t 5.000 | ETA 2m 51s | step 0.10s | KE 683.5726 | drift +0.00% | fluid 6.1416 | solid 677.4310
  Impulse FP iterations last/mean/max 7/6.50/8
Step   200/2000   10.0% | t 10.000 | ETA 2m 45s | step 0.09s | KE 683.6172 | drift +0.01% | fluid 5.7973 | solid 677.8199
  Impulse FP iterations last/mean/max 6/6.57/8
Step   300/2000   15.0% | t 15.000 | ETA 2m 36s | step 0.09s | KE 683.6477 | drift +0.02% | fluid 5.8449 | solid 677.8027
  Impulse FP iterations last/mean/max 7/6.55/8
Step   400/2000   20.0% | t 20.000 | ETA 2m 26s | step 0.08s | KE 683.6902 | drift +0.02% | fluid 5.6003 | solid 678.0899
  Impulse FP iterations last/mean/max 6/6.56/8
Step   500/2000   25.0% | t 25.000 | ETA 2m 14s | step 0.08s | KE 683.7368 | drift +0.03% | fluid 5.1413 | solid 678.5955
  Impulse FP iterations last/mean/max 6/6.56/8
Step   600/2000   30.0% | t 30.000 | ETA 2m 4s | step 0.08s | KE 683.7497 | drift +0.03% | fluid 5.5252 | solid 678.2245
  Impulse FP iterations last/mean/max 6/6.55/8
Step   700/2000   35.0% | t 35.000 | ETA 1m 56s | step 0.11s | KE 683.7647 | drift +0.03% | fluid 5.7343 | solid 678.0305
  Impulse FP iterations last/mean/max 7/6.55/8
Step   800/2000   40.0% | t 40.000 | ETA 1m 48s | step 0.09s | KE 683.7872 | drift +0.04% | fluid 5.7879 | solid 677.9993
  Impulse FP iterations last/mean/max 6/6.54/8
Step   900/2000   45.0% | t 45.000 | ETA 1m 39s | step 0.10s | KE 683.8003 | drift +0.04% | fluid 6.1882 | solid 677.6121
  Impulse FP iterations last/mean/max 7/6.56/8
Step  1000/2000   50.0% | t 50.000 | ETA 1m 30s | step 0.10s | KE 683.8284 | drift +0.04% | fluid 5.9583 | solid 677.8701
  Impulse FP iterations last/mean/max 7/6.55/8
Step  1100/2000   55.0% | t 55.000 | ETA 1m 21s | step 0.10s | KE 683.8447 | drift +0.04% | fluid 5.8786 | solid 677.9661
  Impulse FP iterations last/mean/max 7/6.55/8
Step  1200/2000   60.0% | t 60.000 | ETA 1m 12s | step 0.10s | KE 683.8395 | drift +0.04% | fluid 6.2227 | solid 677.6168
  Impulse FP iterations last/mean/max 7/6.54/8
Step  1300/2000   65.0% | t 65.000 | ETA 1m 4s | step 0.08s | KE 683.8518 | drift +0.05% | fluid 5.8677 | solid 677.9841
  Impulse FP iterations last/mean/max 6/6.55/8
Step  1400/2000   70.0% | t 70.000 | ETA 54s | step 0.09s | KE 683.8613 | drift +0.05% | fluid 5.6605 | solid 678.2008
  Impulse FP iterations last/mean/max 6/6.55/8
Step  1500/2000   75.0% | t 75.000 | ETA 45s | step 0.08s | KE 683.8711 | drift +0.05% | fluid 5.5647 | solid 678.3065
  Impulse FP iterations last/mean/max 6/6.54/8
Step  1600/2000   80.0% | t 80.000 | ETA 36s | step 0.09s | KE 683.8910 | drift +0.05% | fluid 5.1574 | solid 678.7336
  Impulse FP iterations last/mean/max 6/6.54/8
Step  1700/2000   85.0% | t 85.000 | ETA 27s | step 0.09s | KE 683.8831 | drift +0.05% | fluid 5.5720 | solid 678.3110
  Impulse FP iterations last/mean/max 6/6.54/8
Step  1800/2000   90.0% | t 90.000 | ETA 18s | step 0.09s | KE 683.8756 | drift +0.05% | fluid 5.9498 | solid 677.9257
  Impulse FP iterations last/mean/max 7/6.54/8
Step  1900/2000   95.0% | t 95.000 | ETA 9s | step 0.09s | KE 683.8871 | drift +0.05% | fluid 5.7971 | solid 678.0900
  Impulse FP iterations last/mean/max 6/6.54/8
Solver finished successfully - good job!
Results saved successfully.

================== Run summary ==================
  Bodies:            2
  Triangles / nodes: 256 / 516
  Timesteps:         2000  (dt = 0.05)
  Simulated time:    0 -> 100
  First-step setup:  0.221 s
  Mean time/step:    0.0918 s  (excl. first step)
  Total wall time:   3m 3s
  Impulse FP iters last/mean/max: 7 / 6.542 / 8
  Approx impulse solves/step:     6.542
  Impulse start cache hits/direct: 1999 / 1
  Impulse global drift P/H:       3.121659e-9 / 5.864511e-3
  Impulse per-body max drift P/H: 6.894880e-9 / 2.390604e-3
  CPU cores:         256 available, 8 Rayon worker thread(s)
  Started:           2026-06-22 19:26:44
  Finished:          2026-06-22 19:29:48
  Output file:       /work/e643/e643/shared/multi_ellip/studies/two_body_paper_sweeps/runs/spheroid_1_0p7_0p7/spheroid_1_0p7_0p7_rho10_E11_sep11_run01_impulse_noproj/multiple_body_complete.dat
================================================
