
================ Simulation setup ================
  Run label:         /work/e643/e643/shared/multi_ellip/studies/two_body_paper_sweeps/runs/ellipsoid_1_0p8_0p6/ellipsoid_1_0p8_0p6_rho10_E30_sep8_run04_impulse_noproj/
  Started:           2026-06-24 01:24:53
  Input file:        /work/e643/e643/shared/multi_ellip/studies/two_body_paper_sweeps/runs/ellipsoid_1_0p8_0p6/ellipsoid_1_0p8_0p6_rho10_E30_sep8_run04_impulse_noproj/input.txt
  Output file:       /work/e643/e643/shared/multi_ellip/studies/two_body_paper_sweeps/runs/ellipsoid_1_0p8_0p6/ellipsoid_1_0p8_0p6_rho10_E30_sep8_run04_impulse_noproj/multiple_body_complete.dat
  Bodies:            2
  Fluid density:     1
  Mesh:              ndiv 2 -> 256 triangles / 516 nodes
  Simulated time:    0 -> 100  (dt = 0.05, ~2000 steps)
  Output cadence:    every 1 step(s)
  Output rows:       ~2001
  Progress cadence:  every 100 step(s)
  CPU cores:         256 available, 8 Rayon worker thread(s)
  Strong coupling:   disabled
  Impulse scheme:    enabled
  Hamiltonian step:  disabled
  Hamiltonian midpt: disabled
  Variational step:  disabled
  Energy projection: disabled
  Projection particular metric: Euclidean
  Fluid KE gradient: disabled  (eps = 0.001, scale = 1, linear = 1, angular = 1)
  Fluid KE discrete gradient: disabled
  Impulse pair metric correction: disabled  (mode = pair discrete-gradient, cutoff = all pairs, inner/outer = 0/0, eps = 0.001, linear scale = 1, angular scale = 0)
  Impulse metric correction: disabled  (internal load constraint = disabled)
  Impulse variational defect probe: disabled
  Impulse quadratic pressure: disabled  (scale = 1)
  Added-mass stab:   disabled
  Exact BEM geometry: disabled
  Exact singular BEM: disabled
  Legacy singular SLP diagnostic: disabled
  Phi-dot blend:     0 (off)

  Solver guidance:
    - Strong coupling: use for stiff close-coupled runs; slower but more implicit.
    - Impulse scheme: use when impulse/momentum conservation or KE drift is the focus. Recommended.
    - Added-mass stab: use for higher mesh counts (ndiv > 3) to preserve stability - deprecated.
================================================
Solver starting - good luck!

Initial state:
  Body  1
    density:          10.000000
    shape axes ratio: (1.000000, 0.800000, 0.600000)
    initial KE ratio: 30.000000
    position:         (-4.000000, 0.000000, 0.000000)
    velocity:         (-0.389045, -0.155297, -0.658394)
    angular velocity: (2.652477, -3.893201, -4.157615)
    orientation:      (w=-0.635901, i=-0.137670, j=-0.485752, k=0.583713)
  Body  2
    density:          10.000000
    shape axes ratio: (1.000000, 0.800000, 0.600000)
    initial KE ratio: 30.000000
    position:         (4.000000, 0.000000, 0.000000)
    velocity:         (-0.367914, -0.146862, -0.622633)
    angular velocity: (3.303579, -5.237217, -1.065996)
    orientation:      (w=0.303142, i=0.624808, j=0.402293, k=0.596557)

Preparing first step: implicit scheme, no bootstrap passes required.
First step may take longer than later steps.

First step completed in 0.222 s.

Step   100/2000    5.0% | t 5.000 | ETA 3m 2s | step 0.10s | KE 655.1453 | drift -0.03% | fluid 6.9184 | solid 648.2268
  Impulse FP iterations last/mean/max 7/7.33/8
Step   200/2000   10.0% | t 10.000 | ETA 3m 0s | step 0.10s | KE 654.9348 | drift -0.06% | fluid 7.8603 | solid 647.0745
  Impulse FP iterations last/mean/max 8/7.36/8
Step   300/2000   15.0% | t 15.000 | ETA 2m 47s | step 0.09s | KE 654.7298 | drift -0.09% | fluid 7.7063 | solid 647.0235
  Impulse FP iterations last/mean/max 7/7.33/8
Step   400/2000   20.0% | t 20.000 | ETA 2m 34s | step 0.10s | KE 654.5369 | drift -0.12% | fluid 6.4573 | solid 648.0796
  Impulse FP iterations last/mean/max 7/7.31/8
Step   500/2000   25.0% | t 25.000 | ETA 2m 24s | step 0.11s | KE 654.3239 | drift -0.16% | fluid 8.7586 | solid 645.5653
  Impulse FP iterations last/mean/max 8/7.31/8
Step   600/2000   30.0% | t 30.000 | ETA 2m 17s | step 0.10s | KE 654.1634 | drift -0.18% | fluid 7.3399 | solid 646.8235
  Impulse FP iterations last/mean/max 7/7.34/8
Step   700/2000   35.0% | t 35.000 | ETA 2m 9s | step 0.12s | KE 653.9784 | drift -0.21% | fluid 6.3474 | solid 647.6311
  Impulse FP iterations last/mean/max 8/7.36/8
Step   800/2000   40.0% | t 40.000 | ETA 2m 0s | step 0.10s | KE 653.8149 | drift -0.23% | fluid 8.8189 | solid 644.9960
  Impulse FP iterations last/mean/max 7/7.38/8
Step   900/2000   45.0% | t 45.000 | ETA 1m 50s | step 0.10s | KE 653.6639 | drift -0.26% | fluid 6.2315 | solid 647.4325
  Impulse FP iterations last/mean/max 7/7.39/8
Step  1000/2000   50.0% | t 50.000 | ETA 1m 41s | step 0.11s | KE 653.4851 | drift -0.28% | fluid 7.7528 | solid 645.7323
  Impulse FP iterations last/mean/max 8/7.39/8
Step  1100/2000   55.0% | t 55.000 | ETA 1m 31s | step 0.10s | KE 653.3525 | drift -0.30% | fluid 7.0529 | solid 646.2996
  Impulse FP iterations last/mean/max 7/7.41/8
Step  1200/2000   60.0% | t 60.000 | ETA 1m 21s | step 0.11s | KE 653.1782 | drift -0.33% | fluid 8.6252 | solid 644.5530
  Impulse FP iterations last/mean/max 8/7.42/8
Step  1300/2000   65.0% | t 65.000 | ETA 1m 11s | step 0.10s | KE 653.0612 | drift -0.35% | fluid 5.2970 | solid 647.7642
  Impulse FP iterations last/mean/max 7/7.41/8
Step  1400/2000   70.0% | t 70.000 | ETA 1m 1s | step 0.10s | KE 652.9106 | drift -0.37% | fluid 9.6330 | solid 643.2776
  Impulse FP iterations last/mean/max 7/7.40/8
Step  1500/2000   75.0% | t 75.000 | ETA 51s | step 0.12s | KE 652.7944 | drift -0.39% | fluid 5.7942 | solid 647.0003
  Impulse FP iterations last/mean/max 8/7.39/8
Step  1600/2000   80.0% | t 80.000 | ETA 41s | step 0.10s | KE 652.6804 | drift -0.41% | fluid 7.7556 | solid 644.9249
  Impulse FP iterations last/mean/max 7/7.39/8
Step  1700/2000   85.0% | t 85.000 | ETA 30s | step 0.10s | KE 652.5639 | drift -0.42% | fluid 7.1816 | solid 645.3823
  Impulse FP iterations last/mean/max 7/7.39/8
Step  1800/2000   90.0% | t 90.000 | ETA 20s | step 0.11s | KE 652.4627 | drift -0.44% | fluid 7.9337 | solid 644.5290
  Impulse FP iterations last/mean/max 8/7.38/8
Step  1900/2000   95.0% | t 95.000 | ETA 10s | step 0.10s | KE 652.3686 | drift -0.45% | fluid 5.6313 | solid 646.7374
  Impulse FP iterations last/mean/max 7/7.37/8
Solver finished successfully - good job!
Results saved successfully.

================== Run summary ==================
  Bodies:            2
  Triangles / nodes: 256 / 516
  Timesteps:         2000  (dt = 0.05)
  Simulated time:    0 -> 100
  First-step setup:  0.222 s
  Mean time/step:    0.1031 s  (excl. first step)
  Total wall time:   3m 26s
  Impulse FP iters last/mean/max: 7 / 7.360 / 8
  Approx impulse solves/step:     7.361
  Impulse start cache hits/direct: 1999 / 1
  Impulse global drift P/H:       2.326394e-8 / 4.165952e-3
  Impulse per-body max drift P/H: 2.357747e-8 / 5.646539e-3
  CPU cores:         256 available, 8 Rayon worker thread(s)
  Started:           2026-06-24 01:24:53
  Finished:          2026-06-24 01:28:20
  Output file:       /work/e643/e643/shared/multi_ellip/studies/two_body_paper_sweeps/runs/ellipsoid_1_0p8_0p6/ellipsoid_1_0p8_0p6_rho10_E30_sep8_run04_impulse_noproj/multiple_body_complete.dat
================================================
