
================ Simulation setup ================
  Run label:         /work/e643/e643/shared/multi_ellip/studies/two_body_paper_sweeps/runs/spheroid_1_0p7_0p7/spheroid_1_0p7_0p7_rho4_E11_sep8_run01_impulse_noproj/
  Started:           2026-06-22 19:30:32
  Input file:        /work/e643/e643/shared/multi_ellip/studies/two_body_paper_sweeps/runs/spheroid_1_0p7_0p7/spheroid_1_0p7_0p7_rho4_E11_sep8_run01_impulse_noproj/input.txt
  Output file:       /work/e643/e643/shared/multi_ellip/studies/two_body_paper_sweeps/runs/spheroid_1_0p7_0p7/spheroid_1_0p7_0p7_rho4_E11_sep8_run01_impulse_noproj/multiple_body_complete.dat
  Bodies:            2
  Fluid density:     1
  Mesh:              ndiv 2 -> 256 triangles / 516 nodes
  Simulated time:    0 -> 100  (dt = 0.05, ~2000 steps)
  Output cadence:    every 1 step(s)
  Output rows:       ~2001
  Progress cadence:  every 100 step(s)
  CPU cores:         256 available, 8 Rayon worker thread(s)
  Strong coupling:   disabled
  Impulse scheme:    enabled
  Hamiltonian step:  disabled
  Hamiltonian midpt: disabled
  Variational step:  disabled
  Energy projection: disabled
  Projection particular metric: Euclidean
  Fluid KE gradient: disabled  (eps = 0.001, scale = 1, linear = 1, angular = 1)
  Fluid KE discrete gradient: disabled
  Impulse pair metric correction: disabled  (mode = pair discrete-gradient, cutoff = all pairs, inner/outer = 0/0, eps = 0.001, linear scale = 1, angular scale = 0)
  Impulse metric correction: disabled  (internal load constraint = disabled)
  Impulse variational defect probe: disabled
  Impulse quadratic pressure: disabled  (scale = 1)
  Added-mass stab:   disabled
  Exact BEM geometry: disabled
  Exact singular BEM: disabled
  Legacy singular SLP diagnostic: disabled
  Phi-dot blend:     0 (off)

  Solver guidance:
    - Strong coupling: use for stiff close-coupled runs; slower but more implicit.
    - Impulse scheme: use when impulse/momentum conservation or KE drift is the focus. Recommended.
    - Added-mass stab: use for higher mesh counts (ndiv > 3) to preserve stability - deprecated.
================================================
Solver starting - good luck!

Initial state:
  Body  1
    density:          4.000000
    shape axes ratio: (1.000000, 0.700000, 0.700000)
    initial KE ratio: 11.000000
    position:         (-4.000000, 0.000000, 0.000000)
    velocity:         (0.711327, -0.836978, -0.050914)
    angular velocity: (5.856153, -2.028522, 1.033921)
    orientation:      (w=0.447214, i=0.894427, j=0.000000, k=0.000000)
  Body  2
    density:          4.000000
    shape axes ratio: (1.000000, 0.700000, 0.700000)
    initial KE ratio: 11.000000
    position:         (4.000000, 0.000000, 0.000000)
    velocity:         (0.841390, -0.990016, -0.060223)
    angular velocity: (-1.395686, -1.938505, -5.811426)
    orientation:      (w=0.707107, i=0.000000, j=0.707107, k=0.000000)

Preparing first step: implicit scheme, no bootstrap passes required.
First step may take longer than later steps.

First step completed in 0.314 s.

Step   100/2000    5.0% | t 5.000 | ETA 3m 18s | step 0.10s | KE 252.2857 | drift -0.07% | fluid 4.3842 | solid 247.9015
  Impulse FP iterations last/mean/max 7/7.17/8
Step   200/2000   10.0% | t 10.000 | ETA 3m 4s | step 0.10s | KE 252.1398 | drift -0.13% | fluid 4.4440 | solid 247.6958
  Impulse FP iterations last/mean/max 7/7.09/8
Step   300/2000   15.0% | t 15.000 | ETA 2m 53s | step 0.10s | KE 252.0439 | drift -0.17% | fluid 4.4531 | solid 247.5909
  Impulse FP iterations last/mean/max 7/7.10/8
Step   400/2000   20.0% | t 20.000 | ETA 2m 43s | step 0.10s | KE 251.9693 | drift -0.20% | fluid 4.2278 | solid 247.7415
  Impulse FP iterations last/mean/max 7/7.11/8
Step   500/2000   25.0% | t 25.000 | ETA 2m 33s | step 0.12s | KE 251.9154 | drift -0.22% | fluid 4.4591 | solid 247.4562
  Impulse FP iterations last/mean/max 8/7.14/8
Step   600/2000   30.0% | t 30.000 | ETA 2m 23s | step 0.10s | KE 251.8753 | drift -0.24% | fluid 4.0421 | solid 247.8332
  Impulse FP iterations last/mean/max 7/7.17/8
Step   700/2000   35.0% | t 35.000 | ETA 2m 14s | step 0.11s | KE 251.8398 | drift -0.25% | fluid 4.4629 | solid 247.3770
  Impulse FP iterations last/mean/max 8/7.20/8
Step   800/2000   40.0% | t 40.000 | ETA 2m 4s | step 0.10s | KE 251.8167 | drift -0.26% | fluid 3.9252 | solid 247.8915
  Impulse FP iterations last/mean/max 7/7.21/8
Step   900/2000   45.0% | t 45.000 | ETA 1m 54s | step 0.10s | KE 251.7894 | drift -0.27% | fluid 4.4892 | solid 247.3002
  Impulse FP iterations last/mean/max 7/7.23/8
Step  1000/2000   50.0% | t 50.000 | ETA 1m 43s | step 0.10s | KE 251.7748 | drift -0.28% | fluid 3.8839 | solid 247.8909
  Impulse FP iterations last/mean/max 7/7.24/8
Step  1100/2000   55.0% | t 55.000 | ETA 1m 33s | step 0.10s | KE 251.7515 | drift -0.28% | fluid 4.5392 | solid 247.2122
  Impulse FP iterations last/mean/max 7/7.25/8
Step  1200/2000   60.0% | t 60.000 | ETA 1m 23s | step 0.11s | KE 251.7414 | drift -0.29% | fluid 3.9074 | solid 247.8340
  Impulse FP iterations last/mean/max 7/7.25/8
Step  1300/2000   65.0% | t 65.000 | ETA 1m 12s | step 0.11s | KE 251.7206 | drift -0.30% | fluid 4.6005 | solid 247.1200
  Impulse FP iterations last/mean/max 8/7.26/8
Step  1400/2000   70.0% | t 70.000 | ETA 1m 2s | step 0.10s | KE 251.7132 | drift -0.30% | fluid 3.9755 | solid 247.7377
  Impulse FP iterations last/mean/max 6/7.27/8
Step  1500/2000   75.0% | t 75.000 | ETA 52s | step 0.12s | KE 251.6945 | drift -0.31% | fluid 4.6544 | solid 247.0401
  Impulse FP iterations last/mean/max 8/7.28/8
Step  1600/2000   80.0% | t 80.000 | ETA 41s | step 0.10s | KE 251.6888 | drift -0.31% | fluid 4.0645 | solid 247.6243
  Impulse FP iterations last/mean/max 7/7.28/8
Step  1700/2000   85.0% | t 85.000 | ETA 31s | step 0.12s | KE 251.6723 | drift -0.32% | fluid 4.6822 | solid 246.9901
  Impulse FP iterations last/mean/max 8/7.28/8
Step  1800/2000   90.0% | t 90.000 | ETA 20s | step 0.10s | KE 251.6678 | drift -0.32% | fluid 4.1529 | solid 247.5149
  Impulse FP iterations last/mean/max 7/7.29/8
Step  1900/2000   95.0% | t 95.000 | ETA 10s | step 0.11s | KE 251.6538 | drift -0.32% | fluid 4.6705 | solid 246.9833
  Impulse FP iterations last/mean/max 8/7.29/8
Solver finished successfully - good job!
Results saved successfully.

================== Run summary ==================
  Bodies:            2
  Triangles / nodes: 256 / 516
  Timesteps:         2000  (dt = 0.05)
  Simulated time:    0 -> 100
  First-step setup:  0.314 s
  Mean time/step:    0.1036 s  (excl. first step)
  Total wall time:   3m 27s
  Impulse FP iters last/mean/max: 6 / 7.289 / 8
  Approx impulse solves/step:     7.289
  Impulse start cache hits/direct: 1999 / 1
  Impulse global drift P/H:       7.777450e-9 / 7.953015e-3
  Impulse per-body max drift P/H: 9.956899e-9 / 7.952321e-3
  CPU cores:         256 available, 8 Rayon worker thread(s)
  Started:           2026-06-22 19:30:32
  Finished:          2026-06-22 19:34:00
  Output file:       /work/e643/e643/shared/multi_ellip/studies/two_body_paper_sweeps/runs/spheroid_1_0p7_0p7/spheroid_1_0p7_0p7_rho4_E11_sep8_run01_impulse_noproj/multiple_body_complete.dat
================================================
