
================ Simulation setup ================
  Run label:         /work/e643/e643/shared/multi_ellip/studies/multibody_convergence_sweep/runs/stress_both_spheroid_1_0p7_0p7_rho1_E0p25_sep3_nd2_dt0p025/
  Started:           2026-06-22 20:55:40
  Input file:        /work/e643/e643/shared/multi_ellip/studies/multibody_convergence_sweep/runs/stress_both_spheroid_1_0p7_0p7_rho1_E0p25_sep3_nd2_dt0p025/input.txt
  Output file:       /work/e643/e643/shared/multi_ellip/studies/multibody_convergence_sweep/runs/stress_both_spheroid_1_0p7_0p7_rho1_E0p25_sep3_nd2_dt0p025/multiple_body_complete.dat
  Bodies:            2
  Fluid density:     1
  Mesh:              ndiv 2 -> 256 triangles / 516 nodes
  Simulated time:    0 -> 10  (dt = 0.025, ~400 steps)
  Output cadence:    every 1 step(s)
  Output rows:       ~401
  Progress cadence:  every 40 step(s)
  CPU cores:         256 available, 16 Rayon worker thread(s)
  Strong coupling:   disabled
  Impulse scheme:    enabled
  Hamiltonian step:  disabled
  Hamiltonian midpt: disabled
  Variational step:  disabled
  Energy projection: disabled
  Projection particular metric: Euclidean
  Fluid KE gradient: disabled  (eps = 0.001, scale = 1, linear = 1, angular = 1)
  Fluid KE discrete gradient: disabled
  Impulse pair metric correction: disabled  (mode = pair discrete-gradient, cutoff = all pairs, inner/outer = 0/0, eps = 0.001, linear scale = 1, angular scale = 0)
  Impulse metric correction: disabled  (internal load constraint = disabled)
  Impulse variational defect probe: disabled
  Impulse quadratic pressure: disabled  (scale = 1)
  Added-mass stab:   disabled
  Exact BEM geometry: disabled
  Exact singular BEM: disabled
  Legacy singular SLP diagnostic: disabled
  Phi-dot blend:     0 (off)

  Solver guidance:
    - Strong coupling: use for stiff close-coupled runs; slower but more implicit.
    - Impulse scheme: use when impulse/momentum conservation or KE drift is the focus. Recommended.
    - Added-mass stab: use for higher mesh counts (ndiv > 3) to preserve stability - deprecated.
================================================
Solver starting - good luck!

Initial state:
  Body  1
    density:          1.000000
    shape axes ratio: (1.000000, 0.700000, 0.700000)
    initial KE ratio: 0.250000
    position:         (-1.500000, 0.000000, 0.000000)
    velocity:         (5.683355, -1.396006, 6.368203)
    angular velocity: (-1.177334, -1.700952, -5.932880)
    orientation:      (w=0.447214, i=0.894427, j=0.000000, k=0.000000)
  Body  2
    density:          1.000000
    shape axes ratio: (1.000000, 0.700000, 0.700000)
    initial KE ratio: 0.250000
    position:         (1.500000, 0.000000, 0.000000)
    velocity:         (5.296158, -1.300898, 5.934348)
    angular velocity: (-4.047717, 1.667201, 4.507200)
    orientation:      (w=0.707107, i=0.000000, j=0.707107, k=0.000000)

Preparing first step: implicit scheme, no bootstrap passes required.
First step may take longer than later steps.

First step completed in 0.177 s.

Step    40/400    10.0% | t 1.000 | ETA 39s | step 0.10s | KE 572.1407 | drift +10.47% | fluid 171.1494 | solid 400.9913
  Impulse FP iterations last/mean/max 10/10.30/11
Step    80/400    20.0% | t 2.000 | ETA 32s | step 0.09s | KE 586.5226 | drift +13.25% | fluid 164.8046 | solid 421.7180
  Impulse FP iterations last/mean/max 10/10.16/11
Step   120/400    30.0% | t 3.000 | ETA 27s | step 0.09s | KE 586.4837 | drift +13.24% | fluid 154.1575 | solid 432.3263
  Impulse FP iterations last/mean/max 10/10.10/11
Step   160/400    40.0% | t 4.000 | ETA 22s | step 0.09s | KE 584.8085 | drift +12.92% | fluid 153.4105 | solid 431.3980
  Impulse FP iterations last/mean/max 10/10.07/11
Step   200/400    50.0% | t 5.000 | ETA 18s | step 0.08s | KE 582.4321 | drift +12.46% | fluid 155.7537 | solid 426.6784
  Impulse FP iterations last/mean/max 10/10.05/11
Step   240/400    60.0% | t 6.000 | ETA 14s | step 0.07s | KE 581.3678 | drift +12.25% | fluid 170.4115 | solid 410.9563
  Impulse FP iterations last/mean/max 9/10.04/11
Step   280/400    70.0% | t 7.000 | ETA 10s | step 0.07s | KE 581.1201 | drift +12.20% | fluid 164.8583 | solid 416.2617
  Impulse FP iterations last/mean/max 10/10.03/11
Step   320/400    80.0% | t 8.000 | ETA 6s | step 0.07s | KE 580.8959 | drift +12.16% | fluid 153.7188 | solid 427.1771
  Impulse FP iterations last/mean/max 10/10.01/11
Step   360/400    90.0% | t 9.000 | ETA 3s | step 0.07s | KE 580.7524 | drift +12.13% | fluid 155.4278 | solid 425.3247
  Impulse FP iterations last/mean/max 10/9.99/11
Solver finished successfully - good job!
Results saved successfully.

================== Run summary ==================
  Bodies:            2
  Triangles / nodes: 256 / 516
  Timesteps:         400  (dt = 0.025)
  Simulated time:    0 -> 10
  First-step setup:  0.177 s
  Mean time/step:    0.0828 s  (excl. first step)
  Total wall time:   33.20s
  Impulse FP iters last/mean/max: 10 / 9.985 / 11
  Approx impulse solves/step:     9.987
  Impulse start cache hits/direct: 399 / 1
  Impulse global drift P/H:       2.182747e-9 / 1.426313e-2
  Impulse per-body max drift P/H: 3.819996e-9 / 5.342600e-3
  CPU cores:         256 available, 16 Rayon worker thread(s)
  Started:           2026-06-22 20:55:40
  Finished:          2026-06-22 20:56:13
  Output file:       /work/e643/e643/shared/multi_ellip/studies/multibody_convergence_sweep/runs/stress_both_spheroid_1_0p7_0p7_rho1_E0p25_sep3_nd2_dt0p025/multiple_body_complete.dat
================================================
