
================ Simulation setup ================
  Run label:         /work/e643/e643/shared/multi_ellip/studies/departing_sphericity_sweep/runs/triaxial/heterogeneous_sphere/triaxial_heterogeneous_sphere_eps0p0003_rho1_E0p5_sep8_run03_impulse_noproj/
  Started:           2026-06-24 02:37:14
  Input file:        /work/e643/e643/shared/multi_ellip/studies/departing_sphericity_sweep/runs/triaxial/heterogeneous_sphere/triaxial_heterogeneous_sphere_eps0p0003_rho1_E0p5_sep8_run03_impulse_noproj/input.txt
  Output file:       /work/e643/e643/shared/multi_ellip/studies/departing_sphericity_sweep/runs/triaxial/heterogeneous_sphere/triaxial_heterogeneous_sphere_eps0p0003_rho1_E0p5_sep8_run03_impulse_noproj/multiple_body_complete.dat
  Bodies:            2
  Fluid density:     1
  Mesh:              ndiv 2 -> 256 triangles / 516 nodes
  Simulated time:    0 -> 100  (dt = 0.05, ~2000 steps)
  Output cadence:    every 1 step(s)
  Output rows:       ~2001
  Progress cadence:  every 100 step(s)
  CPU cores:         256 available, 8 Rayon worker thread(s)
  Strong coupling:   disabled
  Impulse scheme:    enabled
  Hamiltonian step:  disabled
  Hamiltonian midpt: disabled
  Variational step:  disabled
  Energy projection: disabled
  Projection particular metric: Euclidean
  Fluid KE gradient: disabled  (eps = 0.001, scale = 1, linear = 1, angular = 1)
  Fluid KE discrete gradient: disabled
  Impulse pair metric correction: disabled  (mode = pair discrete-gradient, cutoff = all pairs, inner/outer = 0/0, eps = 0.001, linear scale = 1, angular scale = 0)
  Impulse metric correction: disabled  (internal load constraint = disabled)
  Impulse variational defect probe: disabled
  Impulse quadratic pressure: disabled  (scale = 1)
  Added-mass stab:   disabled
  Exact BEM geometry: disabled
  Exact singular BEM: disabled
  Legacy singular SLP diagnostic: disabled
  Phi-dot blend:     0 (off)

  Solver guidance:
    - Strong coupling: use for stiff close-coupled runs; slower but more implicit.
    - Impulse scheme: use when impulse/momentum conservation or KE drift is the focus. Recommended.
    - Added-mass stab: use for higher mesh counts (ndiv > 3) to preserve stability - deprecated.
================================================
Solver starting - good luck!

Initial state:
  Body  1
    density:          1.000000
    shape axes ratio: (1.000000, 0.999700, 0.999400)
    initial KE ratio: 0.500000
    position:         (-4.000000, 0.000000, 0.000000)
    velocity:         (-5.564271, -0.304017, 0.721048)
    angular velocity: (6.223359, 0.850985, -0.155062)
    orientation:      (w=-0.531136, i=0.845478, j=-0.017379, k=-0.052529)
  Body  2
    density:          1.000000
    shape axes ratio: (1.000000, 1.000000, 1.000000)
    initial KE ratio: 0.500000
    position:         (4.000000, 0.000000, 0.000000)
    velocity:         (-5.565089, -0.304061, 0.721154)
    angular velocity: (-0.771573, -6.044718, -1.531169)
    orientation:      (w=-0.696915, i=0.061177, j=-0.615377, k=0.363151)

Preparing first step: implicit scheme, no bootstrap passes required.
First step may take longer than later steps.

First step completed in 0.277 s.

Step   100/2000    5.0% | t 5.000 | ETA 1m 58s | step 0.06s | KE 272.9509 | drift +0.96% | fluid 71.9357 | solid 201.0153
  Impulse FP iterations last/mean/max 5/5.00/5
Step   200/2000   10.0% | t 10.000 | ETA 1m 54s | step 0.06s | KE 275.8135 | drift +2.02% | fluid 71.9356 | solid 203.8779
  Impulse FP iterations last/mean/max 5/5.00/5
Step   300/2000   15.0% | t 15.000 | ETA 1m 50s | step 0.07s | KE 278.9363 | drift +3.18% | fluid 71.9355 | solid 207.0008
  Impulse FP iterations last/mean/max 5/5.00/5
Step   400/2000   20.0% | t 20.000 | ETA 1m 45s | step 0.07s | KE 282.3211 | drift +4.43% | fluid 71.9354 | solid 210.3856
  Impulse FP iterations last/mean/max 5/5.00/5
Step   500/2000   25.0% | t 25.000 | ETA 1m 40s | step 0.07s | KE 285.9691 | drift +5.78% | fluid 71.9353 | solid 214.0338
  Impulse FP iterations last/mean/max 5/5.00/5
Step   600/2000   30.0% | t 30.000 | ETA 1m 34s | step 0.07s | KE 289.8819 | drift +7.23% | fluid 71.9352 | solid 217.9467
  Impulse FP iterations last/mean/max 5/5.01/6
Step   700/2000   35.0% | t 35.000 | ETA 1m 29s | step 0.07s | KE 294.0610 | drift +8.77% | fluid 71.9352 | solid 222.1257
  Impulse FP iterations last/mean/max 5/5.06/6
Step   800/2000   40.0% | t 40.000 | ETA 1m 23s | step 0.08s | KE 298.5076 | drift +10.42% | fluid 71.9354 | solid 226.5722
  Impulse FP iterations last/mean/max 6/5.11/6
Step   900/2000   45.0% | t 45.000 | ETA 1m 17s | step 0.08s | KE 303.2232 | drift +12.16% | fluid 71.9353 | solid 231.2879
  Impulse FP iterations last/mean/max 6/5.16/6
Step  1000/2000   50.0% | t 50.000 | ETA 1m 11s | step 0.08s | KE 308.2093 | drift +14.01% | fluid 71.9342 | solid 236.2752
  Impulse FP iterations last/mean/max 6/5.21/6
Step  1100/2000   55.0% | t 55.000 | ETA 1m 4s | step 0.07s | KE 313.4671 | drift +15.95% | fluid 71.9344 | solid 241.5326
  Impulse FP iterations last/mean/max 5/5.25/6
Step  1200/2000   60.0% | t 60.000 | ETA 58s | step 0.09s | KE 318.9984 | drift +18.00% | fluid 71.9353 | solid 247.0631
  Impulse FP iterations last/mean/max 6/5.29/6
Step  1300/2000   65.0% | t 65.000 | ETA 51s | step 0.09s | KE 324.8049 | drift +20.14% | fluid 71.9337 | solid 252.8712
  Impulse FP iterations last/mean/max 6/5.33/6
Step  1400/2000   70.0% | t 70.000 | ETA 44s | step 0.08s | KE 330.8880 | drift +22.39% | fluid 71.9349 | solid 258.9531
  Impulse FP iterations last/mean/max 6/5.37/6
Step  1500/2000   75.0% | t 75.000 | ETA 37s | step 0.08s | KE 337.2497 | drift +24.75% | fluid 71.9341 | solid 265.3156
  Impulse FP iterations last/mean/max 6/5.41/6
Step  1600/2000   80.0% | t 80.000 | ETA 30s | step 0.08s | KE 343.8923 | drift +27.20% | fluid 71.9340 | solid 271.9584
  Impulse FP iterations last/mean/max 6/5.45/6
Step  1700/2000   85.0% | t 85.000 | ETA 22s | step 0.09s | KE 350.8172 | drift +29.77% | fluid 71.9360 | solid 278.8813
  Impulse FP iterations last/mean/max 6/5.48/6
Step  1800/2000   90.0% | t 90.000 | ETA 15s | step 0.08s | KE 358.0274 | drift +32.43% | fluid 71.9362 | solid 286.0913
  Impulse FP iterations last/mean/max 6/5.51/6
Step  1900/2000   95.0% | t 95.000 | ETA 7s | step 0.09s | KE 365.5254 | drift +35.21% | fluid 71.9345 | solid 293.5908
  Impulse FP iterations last/mean/max 6/5.53/6
Solver finished successfully - good job!
Results saved successfully.

================== Run summary ==================
  Bodies:            2
  Triangles / nodes: 256 / 516
  Timesteps:         2000  (dt = 0.05)
  Simulated time:    0 -> 100
  First-step setup:  0.277 s
  Mean time/step:    0.0763 s  (excl. first step)
  Total wall time:   2m 32s
  Impulse FP iters last/mean/max: 6 / 5.556 / 6
  Approx impulse solves/step:     5.557
  Impulse start cache hits/direct: 1999 / 1
  Impulse global drift P/H:       8.047136e-9 / 1.001498e-2
  Impulse per-body max drift P/H: 1.804113e-8 / 5.156959e-3
  CPU cores:         256 available, 8 Rayon worker thread(s)
  Started:           2026-06-24 02:37:14
  Finished:          2026-06-24 02:39:47
  Output file:       /work/e643/e643/shared/multi_ellip/studies/departing_sphericity_sweep/runs/triaxial/heterogeneous_sphere/triaxial_heterogeneous_sphere_eps0p0003_rho1_E0p5_sep8_run03_impulse_noproj/multiple_body_complete.dat
================================================
