
================ Simulation setup ================
  Run label:         /work/e643/e643/shared/multi_ellip/studies/multibody_convergence_sweep/runs/periodic_temporal_spheroid_1_0p7_0p7_rho4_E1_sep5_nd3_dt0p025/
  Started:           2026-06-22 19:37:47
  Input file:        /work/e643/e643/shared/multi_ellip/studies/multibody_convergence_sweep/runs/periodic_temporal_spheroid_1_0p7_0p7_rho4_E1_sep5_nd3_dt0p025/input.txt
  Output file:       /work/e643/e643/shared/multi_ellip/studies/multibody_convergence_sweep/runs/periodic_temporal_spheroid_1_0p7_0p7_rho4_E1_sep5_nd3_dt0p025/multiple_body_complete.dat
  Bodies:            2
  Fluid density:     1
  Mesh:              ndiv 3 -> 1024 triangles / 2052 nodes
  Simulated time:    0 -> 10  (dt = 0.025, ~400 steps)
  Output cadence:    every 1 step(s)
  Output rows:       ~401
  Progress cadence:  every 40 step(s)
  CPU cores:         256 available, 16 Rayon worker thread(s)
  Strong coupling:   disabled
  Impulse scheme:    enabled
  Hamiltonian step:  disabled
  Hamiltonian midpt: disabled
  Variational step:  disabled
  Energy projection: disabled
  Projection particular metric: Euclidean
  Fluid KE gradient: disabled  (eps = 0.001, scale = 1, linear = 1, angular = 1)
  Fluid KE discrete gradient: disabled
  Impulse pair metric correction: disabled  (mode = pair discrete-gradient, cutoff = all pairs, inner/outer = 0/0, eps = 0.001, linear scale = 1, angular scale = 0)
  Impulse metric correction: disabled  (internal load constraint = disabled)
  Impulse variational defect probe: disabled
  Impulse quadratic pressure: disabled  (scale = 1)
  Added-mass stab:   disabled
  Exact BEM geometry: disabled
  Exact singular BEM: disabled
  Legacy singular SLP diagnostic: disabled
  Phi-dot blend:     0 (off)

  Solver guidance:
    - Strong coupling: use for stiff close-coupled runs; slower but more implicit.
    - Impulse scheme: use when impulse/momentum conservation or KE drift is the focus. Recommended.
    - Added-mass stab: use for higher mesh counts (ndiv > 3) to preserve stability - deprecated.
================================================
Solver starting - good luck!

Initial state:
  Body  1
    density:          4.000000
    shape axes ratio: (1.000000, 0.700000, 0.700000)
    initial KE ratio: 1.000000
    position:         (-2.500000, 0.000000, 0.000000)
    velocity:         (4.118844, 0.270251, -1.355727)
    angular velocity: (0.565092, -1.442439, -6.089208)
    orientation:      (w=0.447214, i=0.894427, j=0.000000, k=0.000000)
  Body  2
    density:          4.000000
    shape axes ratio: (1.000000, 0.700000, 0.700000)
    initial KE ratio: 1.000000
    position:         (2.500000, 0.000000, 0.000000)
    velocity:         (4.114963, 0.269997, -1.354450)
    angular velocity: (-0.732121, -5.464367, -3.013820)
    orientation:      (w=0.707107, i=0.000000, j=0.707107, k=0.000000)

Preparing first step: implicit scheme, no bootstrap passes required.
First step may take longer than later steps.

First step completed in 2.684 s.

Step    40/400    10.0% | t 1.000 | ETA 5m 38s | step 0.91s | KE 667.1103 | drift +0.55% | fluid 44.4316 | solid 622.6787
  Impulse FP iterations last/mean/max 8/7.95/8
Step    80/400    20.0% | t 2.000 | ETA 4m 55s | step 0.93s | KE 670.4745 | drift +1.06% | fluid 42.7483 | solid 627.7262
  Impulse FP iterations last/mean/max 8/7.89/8
Step   120/400    30.0% | t 3.000 | ETA 4m 15s | step 0.86s | KE 673.5951 | drift +1.53% | fluid 40.5975 | solid 632.9976
  Impulse FP iterations last/mean/max 8/7.87/8
Step   160/400    40.0% | t 4.000 | ETA 3m 30s | step 0.77s | KE 676.5103 | drift +1.97% | fluid 39.8520 | solid 636.6582
  Impulse FP iterations last/mean/max 8/7.80/8
Step   200/400    50.0% | t 5.000 | ETA 2m 49s | step 0.69s | KE 679.2388 | drift +2.38% | fluid 41.0248 | solid 638.2140
  Impulse FP iterations last/mean/max 7/7.71/8
Step   240/400    60.0% | t 6.000 | ETA 2m 10s | step 0.66s | KE 681.7864 | drift +2.76% | fluid 43.5660 | solid 638.2204
  Impulse FP iterations last/mean/max 7/7.60/8
Step   280/400    70.0% | t 7.000 | ETA 1m 35s | step 0.73s | KE 684.1600 | drift +3.12% | fluid 46.4005 | solid 637.7594
  Impulse FP iterations last/mean/max 8/7.53/8
Step   320/400    80.0% | t 8.000 | ETA 1m 2s | step 0.72s | KE 686.3709 | drift +3.45% | fluid 48.4376 | solid 637.9333
  Impulse FP iterations last/mean/max 8/7.48/8
Step   360/400    90.0% | t 9.000 | ETA 30s | step 0.65s | KE 688.4293 | drift +3.76% | fluid 49.0172 | solid 639.4121
  Impulse FP iterations last/mean/max 7/7.44/8
Solver finished successfully - good job!
Results saved successfully.

================== Run summary ==================
  Bodies:            2
  Triangles / nodes: 1024 / 2052
  Timesteps:         400  (dt = 0.025)
  Simulated time:    0 -> 10
  First-step setup:  2.684 s
  Mean time/step:    0.7529 s  (excl. first step)
  Total wall time:   5m 3s
  Impulse FP iters last/mean/max: 7 / 7.425 / 8
  Approx impulse solves/step:     7.428
  Impulse start cache hits/direct: 399 / 1
  Impulse global drift P/H:       2.535029e-9 / 1.430387e-3
  Impulse per-body max drift P/H: 4.425797e-9 / 1.486159e-3
  CPU cores:         256 available, 16 Rayon worker thread(s)
  Started:           2026-06-22 19:37:47
  Finished:          2026-06-22 19:42:50
  Output file:       /work/e643/e643/shared/multi_ellip/studies/multibody_convergence_sweep/runs/periodic_temporal_spheroid_1_0p7_0p7_rho4_E1_sep5_nd3_dt0p025/multiple_body_complete.dat
================================================
