
================ Simulation setup ================
  Run label:         /work/e643/e643/shared/multi_ellip/studies/multibody_convergence_sweep/runs/periodic_temporal_ellipsoid_1_0p8_0p6_rho4_E1_sep5_nd3_dt0p2/
  Started:           2026-06-22 18:51:56
  Input file:        /work/e643/e643/shared/multi_ellip/studies/multibody_convergence_sweep/runs/periodic_temporal_ellipsoid_1_0p8_0p6_rho4_E1_sep5_nd3_dt0p2/input.txt
  Output file:       /work/e643/e643/shared/multi_ellip/studies/multibody_convergence_sweep/runs/periodic_temporal_ellipsoid_1_0p8_0p6_rho4_E1_sep5_nd3_dt0p2/multiple_body_complete.dat
  Bodies:            2
  Fluid density:     1
  Mesh:              ndiv 3 -> 1024 triangles / 2052 nodes
  Simulated time:    0 -> 10  (dt = 0.2, ~50 steps)
  Output cadence:    every 1 step(s)
  Output rows:       ~51
  Progress cadence:  every 5 step(s)
  CPU cores:         256 available, 16 Rayon worker thread(s)
  Strong coupling:   disabled
  Impulse scheme:    enabled
  Hamiltonian step:  disabled
  Hamiltonian midpt: disabled
  Variational step:  disabled
  Energy projection: disabled
  Projection particular metric: Euclidean
  Fluid KE gradient: disabled  (eps = 0.001, scale = 1, linear = 1, angular = 1)
  Fluid KE discrete gradient: disabled
  Impulse pair metric correction: disabled  (mode = pair discrete-gradient, cutoff = all pairs, inner/outer = 0/0, eps = 0.001, linear scale = 1, angular scale = 0)
  Impulse metric correction: disabled  (internal load constraint = disabled)
  Impulse variational defect probe: disabled
  Impulse quadratic pressure: disabled  (scale = 1)
  Added-mass stab:   disabled
  Exact BEM geometry: disabled
  Exact singular BEM: disabled
  Legacy singular SLP diagnostic: disabled
  Phi-dot blend:     0 (off)

  Solver guidance:
    - Strong coupling: use for stiff close-coupled runs; slower but more implicit.
    - Impulse scheme: use when impulse/momentum conservation or KE drift is the focus. Recommended.
    - Added-mass stab: use for higher mesh counts (ndiv > 3) to preserve stability - deprecated.
================================================
Solver starting - good luck!

Initial state:
  Body  1
    density:          4.000000
    shape axes ratio: (1.000000, 0.800000, 0.600000)
    initial KE ratio: 1.000000
    position:         (-2.500000, 0.000000, 0.000000)
    velocity:         (-1.010651, 3.935863, -0.647864)
    angular velocity: (2.372272, 5.745123, 0.918863)
    orientation:      (w=0.447214, i=0.894427, j=0.000000, k=0.000000)
  Body  2
    density:          4.000000
    shape axes ratio: (1.000000, 0.800000, 0.600000)
    initial KE ratio: 1.000000
    position:         (2.500000, 0.000000, 0.000000)
    velocity:         (-1.025226, 3.992622, -0.657206)
    angular velocity: (-0.978103, -6.188555, 0.472775)
    orientation:      (w=0.707107, i=0.000000, j=0.707107, k=0.000000)

Preparing first step: implicit scheme, no bootstrap passes required.
First step may take longer than later steps.

First step completed in 5.618 s.

Step     5/50     10.0% | t 1.000 | ETA 52s | step 1.05s | KE 646.8918 | drift +0.07% | fluid 41.7574 | solid 605.1344
  Impulse FP iterations last/mean/max 9/9.40/10
Step    10/50     20.0% | t 2.000 | ETA 43s | step 1.00s | KE 647.2285 | drift +0.12% | fluid 49.1834 | solid 598.0451
  Impulse FP iterations last/mean/max 9/9.30/10
Step    15/50     30.0% | t 3.000 | ETA 37s | step 1.11s | KE 649.3197 | drift +0.45% | fluid 52.5853 | solid 596.7344
  Impulse FP iterations last/mean/max 10/9.33/10
Step    20/50     40.0% | t 4.000 | ETA 32s | step 1.12s | KE 652.1682 | drift +0.89% | fluid 48.8770 | solid 603.2912
  Impulse FP iterations last/mean/max 9/9.35/10
Step    25/50     50.0% | t 5.000 | ETA 27s | step 1.20s | KE 651.6949 | drift +0.81% | fluid 50.1603 | solid 601.5347
  Impulse FP iterations last/mean/max 10/9.36/10
Step    30/50     60.0% | t 6.000 | ETA 22s | step 1.09s | KE 654.6873 | drift +1.28% | fluid 54.1006 | solid 600.5868
  Impulse FP iterations last/mean/max 9/9.33/10
Step    35/50     70.0% | t 7.000 | ETA 16s | step 1.03s | KE 658.8705 | drift +1.92% | fluid 48.6095 | solid 610.2610
  Impulse FP iterations last/mean/max 9/9.31/10
Step    40/50     80.0% | t 8.000 | ETA 11s | step 1.25s | KE 658.1055 | drift +1.81% | fluid 43.2126 | solid 614.8930
  Impulse FP iterations last/mean/max 9/9.32/10
Step    45/50     90.0% | t 9.000 | ETA 5s | step 1.33s | KE 659.6307 | drift +2.04% | fluid 51.0658 | solid 608.5649
  Impulse FP iterations last/mean/max 10/9.33/10
Solver finished successfully - good job!
Results saved successfully.

================== Run summary ==================
  Bodies:            2
  Triangles / nodes: 1024 / 2052
  Timesteps:         50  (dt = 0.2)
  Simulated time:    0 -> 10
  First-step setup:  5.618 s
  Mean time/step:    1.1596 s  (excl. first step)
  Total wall time:   1m 2s
  Impulse FP iters last/mean/max: 9 / 9.320 / 10
  Approx impulse solves/step:     9.340
  Impulse start cache hits/direct: 49 / 1
  Impulse global drift P/H:       1.104454e-10 / 1.031649e0
  Impulse per-body max drift P/H: 2.397506e-10 / 6.574121e-2
  CPU cores:         256 available, 16 Rayon worker thread(s)
  Started:           2026-06-22 18:51:56
  Finished:          2026-06-22 18:52:59
  Output file:       /work/e643/e643/shared/multi_ellip/studies/multibody_convergence_sweep/runs/periodic_temporal_ellipsoid_1_0p8_0p6_rho4_E1_sep5_nd3_dt0p2/multiple_body_complete.dat
================================================
