
================ Simulation setup ================
  Run label:         /work/e643/e643/shared/multi_ellip/studies/departing_sphericity_sweep/runs/triaxial/heterogeneous_sphere/triaxial_heterogeneous_sphere_eps0p01_rho1_E0p5_sep8_run10_impulse_noproj/
  Started:           2026-06-24 02:43:22
  Input file:        /work/e643/e643/shared/multi_ellip/studies/departing_sphericity_sweep/runs/triaxial/heterogeneous_sphere/triaxial_heterogeneous_sphere_eps0p01_rho1_E0p5_sep8_run10_impulse_noproj/input.txt
  Output file:       /work/e643/e643/shared/multi_ellip/studies/departing_sphericity_sweep/runs/triaxial/heterogeneous_sphere/triaxial_heterogeneous_sphere_eps0p01_rho1_E0p5_sep8_run10_impulse_noproj/multiple_body_complete.dat
  Bodies:            2
  Fluid density:     1
  Mesh:              ndiv 2 -> 256 triangles / 516 nodes
  Simulated time:    0 -> 100  (dt = 0.05, ~2000 steps)
  Output cadence:    every 1 step(s)
  Output rows:       ~2001
  Progress cadence:  every 100 step(s)
  CPU cores:         256 available, 8 Rayon worker thread(s)
  Strong coupling:   disabled
  Impulse scheme:    enabled
  Hamiltonian step:  disabled
  Hamiltonian midpt: disabled
  Variational step:  disabled
  Energy projection: disabled
  Projection particular metric: Euclidean
  Fluid KE gradient: disabled  (eps = 0.001, scale = 1, linear = 1, angular = 1)
  Fluid KE discrete gradient: disabled
  Impulse pair metric correction: disabled  (mode = pair discrete-gradient, cutoff = all pairs, inner/outer = 0/0, eps = 0.001, linear scale = 1, angular scale = 0)
  Impulse metric correction: disabled  (internal load constraint = disabled)
  Impulse variational defect probe: disabled
  Impulse quadratic pressure: disabled  (scale = 1)
  Added-mass stab:   disabled
  Exact BEM geometry: disabled
  Exact singular BEM: disabled
  Legacy singular SLP diagnostic: disabled
  Phi-dot blend:     0 (off)

  Solver guidance:
    - Strong coupling: use for stiff close-coupled runs; slower but more implicit.
    - Impulse scheme: use when impulse/momentum conservation or KE drift is the focus. Recommended.
    - Added-mass stab: use for higher mesh counts (ndiv > 3) to preserve stability - deprecated.
================================================
Solver starting - good luck!

Initial state:
  Body  1
    density:          1.000000
    shape axes ratio: (1.000000, 0.990099, 0.980296)
    initial KE ratio: 0.500000
    position:         (-4.000000, 0.000000, 0.000000)
    velocity:         (2.915516, -0.846017, -4.715927)
    angular velocity: (-4.213240, -4.527547, 1.108305)
    orientation:      (w=0.619692, i=-0.648354, j=0.339166, k=0.283875)
  Body  2
    density:          1.000000
    shape axes ratio: (1.000000, 1.000000, 1.000000)
    initial KE ratio: 0.500000
    position:         (4.000000, 0.000000, 0.000000)
    velocity:         (2.921386, -0.847720, -4.725422)
    angular velocity: (3.757983, -3.590130, 3.530856)
    orientation:      (w=0.156412, i=0.407457, j=-0.883292, k=-0.171200)

Preparing first step: implicit scheme, no bootstrap passes required.
First step may take longer than later steps.

First step completed in 0.329 s.

Step   100/2000    5.0% | t 5.000 | ETA 3m 31s | step 0.10s | KE 283.5348 | drift +5.03% | fluid 71.9864 | solid 211.5484
  Impulse FP iterations last/mean/max 7/7.80/8
Step   200/2000   10.0% | t 10.000 | ETA 3m 19s | step 0.12s | KE 298.4475 | drift +10.55% | fluid 71.7003 | solid 226.7471
  Impulse FP iterations last/mean/max 8/7.78/8
Step   300/2000   15.0% | t 15.000 | ETA 3m 7s | step 0.10s | KE 314.3848 | drift +16.46% | fluid 71.9860 | solid 242.3988
  Impulse FP iterations last/mean/max 7/7.74/8
Step   400/2000   20.0% | t 20.000 | ETA 2m 55s | step 0.09s | KE 331.3423 | drift +22.74% | fluid 71.6648 | solid 259.6776
  Impulse FP iterations last/mean/max 7/7.70/8
Step   500/2000   25.0% | t 25.000 | ETA 2m 43s | step 0.11s | KE 348.9628 | drift +29.26% | fluid 71.8666 | solid 277.0962
  Impulse FP iterations last/mean/max 8/7.66/8
Step   600/2000   30.0% | t 30.000 | ETA 2m 32s | step 0.11s | KE 367.1996 | drift +36.02% | fluid 71.8677 | solid 295.3319
  Impulse FP iterations last/mean/max 8/7.62/8
Step   700/2000   35.0% | t 35.000 | ETA 2m 20s | step 0.12s | KE 385.9190 | drift +42.95% | fluid 71.7660 | solid 314.1529
  Impulse FP iterations last/mean/max 8/7.60/8
Step   800/2000   40.0% | t 40.000 | ETA 2m 9s | step 0.09s | KE 404.9253 | drift +49.99% | fluid 71.7603 | solid 333.1651
  Impulse FP iterations last/mean/max 7/7.58/8
Step   900/2000   45.0% | t 45.000 | ETA 1m 58s | step 0.12s | KE 424.0583 | drift +57.08% | fluid 71.7218 | solid 352.3364
  Impulse FP iterations last/mean/max 8/7.58/8
Step  1000/2000   50.0% | t 50.000 | ETA 1m 48s | step 0.12s | KE 443.2566 | drift +64.19% | fluid 71.6967 | solid 371.5599
  Impulse FP iterations last/mean/max 8/7.57/8
Step  1100/2000   55.0% | t 55.000 | ETA 1m 37s | step 0.11s | KE 462.3368 | drift +71.26% | fluid 71.9047 | solid 390.4321
  Impulse FP iterations last/mean/max 8/7.57/8
Step  1200/2000   60.0% | t 60.000 | ETA 1m 26s | step 0.10s | KE 481.4193 | drift +78.33% | fluid 71.6627 | solid 409.7566
  Impulse FP iterations last/mean/max 7/7.54/8
Step  1300/2000   65.0% | t 65.000 | ETA 1m 15s | step 0.09s | KE 500.2215 | drift +85.29% | fluid 71.6710 | solid 428.5505
  Impulse FP iterations last/mean/max 7/7.51/8
Step  1400/2000   70.0% | t 70.000 | ETA 1m 4s | step 0.10s | KE 518.6131 | drift +92.11% | fluid 71.9900 | solid 446.6231
  Impulse FP iterations last/mean/max 7/7.49/8
Step  1500/2000   75.0% | t 75.000 | ETA 53s | step 0.12s | KE 536.8605 | drift +98.87% | fluid 71.8695 | solid 464.9910
  Impulse FP iterations last/mean/max 8/7.48/8
Step  1600/2000   80.0% | t 80.000 | ETA 42s | step 0.10s | KE 554.7846 | drift +105.51% | fluid 71.7155 | solid 483.0692
  Impulse FP iterations last/mean/max 7/7.48/8
Step  1700/2000   85.0% | t 85.000 | ETA 32s | step 0.11s | KE 572.2045 | drift +111.96% | fluid 71.7756 | solid 500.4289
  Impulse FP iterations last/mean/max 8/7.48/8
Step  1800/2000   90.0% | t 90.000 | ETA 21s | step 0.08s | KE 589.2614 | drift +118.28% | fluid 71.7653 | solid 517.4960
  Impulse FP iterations last/mean/max 7/7.46/8
Step  1900/2000   95.0% | t 95.000 | ETA 10s | step 0.08s | KE 605.8752 | drift +124.43% | fluid 71.6954 | solid 534.1798
  Impulse FP iterations last/mean/max 7/7.44/8
Solver finished successfully - good job!
Results saved successfully.

================== Run summary ==================
  Bodies:            2
  Triangles / nodes: 256 / 516
  Timesteps:         2000  (dt = 0.05)
  Simulated time:    0 -> 100
  First-step setup:  0.329 s
  Mean time/step:    0.1032 s  (excl. first step)
  Total wall time:   3m 26s
  Impulse FP iters last/mean/max: 7 / 7.428 / 8
  Approx impulse solves/step:     7.428
  Impulse start cache hits/direct: 1999 / 1
  Impulse global drift P/H:       1.109991e-8 / 2.493657e-2
  Impulse per-body max drift P/H: 3.383624e-8 / 2.518105e-3
  CPU cores:         256 available, 8 Rayon worker thread(s)
  Started:           2026-06-24 02:43:22
  Finished:          2026-06-24 02:46:50
  Output file:       /work/e643/e643/shared/multi_ellip/studies/departing_sphericity_sweep/runs/triaxial/heterogeneous_sphere/triaxial_heterogeneous_sphere_eps0p01_rho1_E0p5_sep8_run10_impulse_noproj/multiple_body_complete.dat
================================================
