
================ Simulation setup ================
  Run label:         /work/e643/e643/shared/multi_ellip/studies/two_body_paper_sweeps/runs/ellipsoid_1_0p8_0p6/ellipsoid_1_0p8_0p6_rho1_E0p55_sep8_run01_impulse_noproj/
  Started:           2026-06-22 19:34:42
  Input file:        /work/e643/e643/shared/multi_ellip/studies/two_body_paper_sweeps/runs/ellipsoid_1_0p8_0p6/ellipsoid_1_0p8_0p6_rho1_E0p55_sep8_run01_impulse_noproj/input.txt
  Output file:       /work/e643/e643/shared/multi_ellip/studies/two_body_paper_sweeps/runs/ellipsoid_1_0p8_0p6/ellipsoid_1_0p8_0p6_rho1_E0p55_sep8_run01_impulse_noproj/multiple_body_complete.dat
  Bodies:            2
  Fluid density:     1
  Mesh:              ndiv 2 -> 256 triangles / 516 nodes
  Simulated time:    0 -> 100  (dt = 0.05, ~2000 steps)
  Output cadence:    every 1 step(s)
  Output rows:       ~2001
  Progress cadence:  every 100 step(s)
  CPU cores:         256 available, 8 Rayon worker thread(s)
  Strong coupling:   disabled
  Impulse scheme:    enabled
  Hamiltonian step:  disabled
  Hamiltonian midpt: disabled
  Variational step:  disabled
  Energy projection: disabled
  Projection particular metric: Euclidean
  Fluid KE gradient: disabled  (eps = 0.001, scale = 1, linear = 1, angular = 1)
  Fluid KE discrete gradient: disabled
  Impulse pair metric correction: disabled  (mode = pair discrete-gradient, cutoff = all pairs, inner/outer = 0/0, eps = 0.001, linear scale = 1, angular scale = 0)
  Impulse metric correction: disabled  (internal load constraint = disabled)
  Impulse variational defect probe: disabled
  Impulse quadratic pressure: disabled  (scale = 1)
  Added-mass stab:   disabled
  Exact BEM geometry: disabled
  Exact singular BEM: disabled
  Legacy singular SLP diagnostic: disabled
  Phi-dot blend:     0 (off)

  Solver guidance:
    - Strong coupling: use for stiff close-coupled runs; slower but more implicit.
    - Impulse scheme: use when impulse/momentum conservation or KE drift is the focus. Recommended.
    - Added-mass stab: use for higher mesh counts (ndiv > 3) to preserve stability - deprecated.
================================================
Solver starting - good luck!

Initial state:
  Body  1
    density:          1.000000
    shape axes ratio: (1.000000, 0.800000, 0.600000)
    initial KE ratio: 0.550000
    position:         (-4.000000, 0.000000, 0.000000)
    velocity:         (-2.294753, -1.840061, 5.024436)
    angular velocity: (1.181582, 4.893629, -3.759612)
    orientation:      (w=0.447214, i=0.894427, j=0.000000, k=0.000000)
  Body  2
    density:          1.000000
    shape axes ratio: (1.000000, 0.800000, 0.600000)
    initial KE ratio: 0.550000
    position:         (4.000000, 0.000000, 0.000000)
    velocity:         (-2.059017, -1.651034, 4.508284)
    angular velocity: (4.861007, -3.592632, -1.715234)
    orientation:      (w=0.707107, i=0.000000, j=0.707107, k=0.000000)

Preparing first step: implicit scheme, no bootstrap passes required.
First step may take longer than later steps.

First step completed in 0.290 s.

Step   100/2000    5.0% | t 5.000 | ETA 4m 51s | step 0.16s | KE 270.7988 | drift -1.99% | fluid 66.4620 | solid 204.3368
  Impulse FP iterations last/mean/max 11/11.29/12
Step   200/2000   10.0% | t 10.000 | ETA 4m 37s | step 0.15s | KE 272.8754 | drift -1.24% | fluid 67.9367 | solid 204.9386
  Impulse FP iterations last/mean/max 10/11.32/12
Step   300/2000   15.0% | t 15.000 | ETA 4m 23s | step 0.15s | KE 271.6863 | drift -1.67% | fluid 67.3564 | solid 204.3299
  Impulse FP iterations last/mean/max 11/11.35/12
Step   400/2000   20.0% | t 20.000 | ETA 4m 8s | step 0.18s | KE 271.1027 | drift -1.88% | fluid 81.2453 | solid 189.8574
  Impulse FP iterations last/mean/max 12/11.38/12
Step   500/2000   25.0% | t 25.000 | ETA 3m 53s | step 0.17s | KE 271.7555 | drift -1.65% | fluid 75.8904 | solid 195.8651
  Impulse FP iterations last/mean/max 12/11.36/12
Step   600/2000   30.0% | t 30.000 | ETA 3m 37s | step 0.15s | KE 271.9764 | drift -1.57% | fluid 72.4191 | solid 199.5573
  Impulse FP iterations last/mean/max 11/11.36/12
Step   700/2000   35.0% | t 35.000 | ETA 3m 21s | step 0.15s | KE 272.0498 | drift -1.54% | fluid 64.1871 | solid 207.8626
  Impulse FP iterations last/mean/max 11/11.35/12
Step   800/2000   40.0% | t 40.000 | ETA 3m 6s | step 0.14s | KE 271.6550 | drift -1.69% | fluid 70.2220 | solid 201.4330
  Impulse FP iterations last/mean/max 11/11.34/12
Step   900/2000   45.0% | t 45.000 | ETA 2m 50s | step 0.17s | KE 271.8840 | drift -1.60% | fluid 75.8981 | solid 195.9859
  Impulse FP iterations last/mean/max 12/11.35/12
Step  1000/2000   50.0% | t 50.000 | ETA 2m 34s | step 0.15s | KE 271.3056 | drift -1.81% | fluid 78.2704 | solid 193.0351
  Impulse FP iterations last/mean/max 12/11.34/12
Step  1100/2000   55.0% | t 55.000 | ETA 2m 19s | step 0.16s | KE 272.0993 | drift -1.52% | fluid 67.3907 | solid 204.7086
  Impulse FP iterations last/mean/max 11/11.33/12
Step  1200/2000   60.0% | t 60.000 | ETA 2m 3s | step 0.14s | KE 272.4266 | drift -1.41% | fluid 67.7875 | solid 204.6391
  Impulse FP iterations last/mean/max 11/11.34/12
Step  1300/2000   65.0% | t 65.000 | ETA 1m 48s | step 0.15s | KE 272.1863 | drift -1.49% | fluid 64.6007 | solid 207.5856
  Impulse FP iterations last/mean/max 11/11.34/12
Step  1400/2000   70.0% | t 70.000 | ETA 1m 32s | step 0.16s | KE 272.2684 | drift -1.46% | fluid 69.5061 | solid 202.7623
  Impulse FP iterations last/mean/max 11/11.33/12
Step  1500/2000   75.0% | t 75.000 | ETA 1m 17s | step 0.15s | KE 272.0728 | drift -1.53% | fluid 68.3635 | solid 203.7092
  Impulse FP iterations last/mean/max 11/11.33/12
Step  1600/2000   80.0% | t 80.000 | ETA 1m 1s | step 0.16s | KE 271.8630 | drift -1.61% | fluid 70.3812 | solid 201.4818
  Impulse FP iterations last/mean/max 11/11.34/12
Step  1700/2000   85.0% | t 85.000 | ETA 46s | step 0.15s | KE 271.9447 | drift -1.58% | fluid 70.3424 | solid 201.6023
  Impulse FP iterations last/mean/max 11/11.34/12
Step  1800/2000   90.0% | t 90.000 | ETA 30s | step 0.16s | KE 272.1342 | drift -1.51% | fluid 74.2429 | solid 197.8913
  Impulse FP iterations last/mean/max 11/11.34/12
Step  1900/2000   95.0% | t 95.000 | ETA 15s | step 0.15s | KE 272.0138 | drift -1.56% | fluid 70.7551 | solid 201.2587
  Impulse FP iterations last/mean/max 11/11.34/12
Solver finished successfully - good job!
Results saved successfully.

================== Run summary ==================
  Bodies:            2
  Triangles / nodes: 256 / 516
  Timesteps:         2000  (dt = 0.05)
  Simulated time:    0 -> 100
  First-step setup:  0.290 s
  Mean time/step:    0.1532 s  (excl. first step)
  Total wall time:   5m 6s
  Impulse FP iters last/mean/max: 11 / 11.335 / 12
  Approx impulse solves/step:     11.336
  Impulse start cache hits/direct: 1999 / 1
  Impulse global drift P/H:       3.237031e-9 / 9.753169e-3
  Impulse per-body max drift P/H: 4.098763e-9 / 2.225360e-3
  CPU cores:         256 available, 8 Rayon worker thread(s)
  Started:           2026-06-22 19:34:42
  Finished:          2026-06-22 19:39:49
  Output file:       /work/e643/e643/shared/multi_ellip/studies/two_body_paper_sweeps/runs/ellipsoid_1_0p8_0p6/ellipsoid_1_0p8_0p6_rho1_E0p55_sep8_run01_impulse_noproj/multiple_body_complete.dat
================================================
