
================ Simulation setup ================
  Run label:         /work/e643/e643/shared/multi_ellip/studies/two_body_paper_sweeps/runs/spheroid_1_0p7_0p7/spheroid_1_0p7_0p7_rho0p03_E30_sep11_run01_impulse_noproj/
  Started:           2026-06-22 20:09:23
  Input file:        /work/e643/e643/shared/multi_ellip/studies/two_body_paper_sweeps/runs/spheroid_1_0p7_0p7/spheroid_1_0p7_0p7_rho0p03_E30_sep11_run01_impulse_noproj/input.txt
  Output file:       /work/e643/e643/shared/multi_ellip/studies/two_body_paper_sweeps/runs/spheroid_1_0p7_0p7/spheroid_1_0p7_0p7_rho0p03_E30_sep11_run01_impulse_noproj/multiple_body_complete.dat
  Bodies:            2
  Fluid density:     1
  Mesh:              ndiv 2 -> 256 triangles / 516 nodes
  Simulated time:    0 -> 100  (dt = 0.05, ~2000 steps)
  Output cadence:    every 1 step(s)
  Output rows:       ~2001
  Progress cadence:  every 100 step(s)
  CPU cores:         256 available, 8 Rayon worker thread(s)
  Strong coupling:   disabled
  Impulse scheme:    enabled
  Hamiltonian step:  disabled
  Hamiltonian midpt: disabled
  Variational step:  disabled
  Energy projection: disabled
  Projection particular metric: Euclidean
  Fluid KE gradient: disabled  (eps = 0.001, scale = 1, linear = 1, angular = 1)
  Fluid KE discrete gradient: disabled
  Impulse pair metric correction: disabled  (mode = pair discrete-gradient, cutoff = all pairs, inner/outer = 0/0, eps = 0.001, linear scale = 1, angular scale = 0)
  Impulse metric correction: disabled  (internal load constraint = disabled)
  Impulse variational defect probe: disabled
  Impulse quadratic pressure: disabled  (scale = 1)
  Added-mass stab:   disabled
  Exact BEM geometry: disabled
  Exact singular BEM: disabled
  Legacy singular SLP diagnostic: disabled
  Phi-dot blend:     0 (off)

  Solver guidance:
    - Strong coupling: use for stiff close-coupled runs; slower but more implicit.
    - Impulse scheme: use when impulse/momentum conservation or KE drift is the focus. Recommended.
    - Added-mass stab: use for higher mesh counts (ndiv > 3) to preserve stability - deprecated.
================================================
Solver starting - good luck!

Initial state:
  Body  1
    density:          0.030000
    shape axes ratio: (1.000000, 0.700000, 0.700000)
    initial KE ratio: 30.000000
    position:         (-5.500000, 0.000000, 0.000000)
    velocity:         (0.482636, 0.554401, -0.234455)
    angular velocity: (-2.553786, 5.205401, -2.420825)
    orientation:      (w=0.447214, i=0.894427, j=0.000000, k=0.000000)
  Body  2
    density:          0.030000
    shape axes ratio: (1.000000, 0.700000, 0.700000)
    initial KE ratio: 30.000000
    position:         (5.500000, 0.000000, 0.000000)
    velocity:         (0.496270, 0.570062, -0.241078)
    angular velocity: (-0.535708, 5.567636, 2.862317)
    orientation:      (w=0.707107, i=0.000000, j=0.707107, k=0.000000)

Preparing first step: implicit scheme, no bootstrap passes required.
First step may take longer than later steps.

First step completed in 0.516 s.

Step   100/2000    5.0% | t 5.000 | ETA 8m 38s | step 0.28s | KE 9.1557 | drift +0.34% | fluid 6.8349 | solid 2.3208
  Impulse FP iterations last/mean/max 20/19.15/22
Step   200/2000   10.0% | t 10.000 | ETA 8m 25s | step 0.28s | KE 9.1862 | drift +0.68% | fluid 6.8808 | solid 2.3055
  Impulse FP iterations last/mean/max 20/19.70/24
Step   300/2000   15.0% | t 15.000 | ETA 7m 49s | step 0.27s | KE 9.1741 | drift +0.55% | fluid 6.8932 | solid 2.2809
  Impulse FP iterations last/mean/max 19/19.38/24
Step   400/2000   20.0% | t 20.000 | ETA 7m 26s | step 0.29s | KE 9.1533 | drift +0.32% | fluid 6.9030 | solid 2.2502
  Impulse FP iterations last/mean/max 20/19.60/24
Step   500/2000   25.0% | t 25.000 | ETA 6m 57s | step 0.32s | KE 9.1841 | drift +0.66% | fluid 6.8913 | solid 2.2928
  Impulse FP iterations last/mean/max 22/19.53/24
Step   600/2000   30.0% | t 30.000 | ETA 6m 32s | step 0.26s | KE 9.1789 | drift +0.60% | fluid 6.9047 | solid 2.2742
  Impulse FP iterations last/mean/max 18/19.63/24
Step   700/2000   35.0% | t 35.000 | ETA 6m 2s | step 0.29s | KE 9.1648 | drift +0.44% | fluid 6.8464 | solid 2.3184
  Impulse FP iterations last/mean/max 21/19.55/24
Step   800/2000   40.0% | t 40.000 | ETA 5m 36s | step 0.31s | KE 9.1582 | drift +0.37% | fluid 6.8453 | solid 2.3129
  Impulse FP iterations last/mean/max 21/19.62/24
Step   900/2000   45.0% | t 45.000 | ETA 5m 7s | step 0.25s | KE 9.1660 | drift +0.46% | fluid 6.8785 | solid 2.2876
  Impulse FP iterations last/mean/max 18/19.59/24
Step  1000/2000   50.0% | t 50.000 | ETA 4m 39s | step 0.26s | KE 9.1719 | drift +0.52% | fluid 6.8716 | solid 2.3003
  Impulse FP iterations last/mean/max 18/19.62/24
Step  1100/2000   55.0% | t 55.000 | ETA 4m 11s | step 0.29s | KE 9.1675 | drift +0.47% | fluid 6.9029 | solid 2.2646
  Impulse FP iterations last/mean/max 20/19.59/24
Step  1200/2000   60.0% | t 60.000 | ETA 3m 43s | step 0.29s | KE 9.1846 | drift +0.66% | fluid 6.9023 | solid 2.2823
  Impulse FP iterations last/mean/max 21/19.61/24
Step  1300/2000   65.0% | t 65.000 | ETA 3m 15s | step 0.32s | KE 9.1694 | drift +0.49% | fluid 6.8947 | solid 2.2747
  Impulse FP iterations last/mean/max 22/19.61/24
Step  1400/2000   70.0% | t 70.000 | ETA 2m 47s | step 0.27s | KE 9.1672 | drift +0.47% | fluid 6.8595 | solid 2.3077
  Impulse FP iterations last/mean/max 18/19.60/24
Step  1500/2000   75.0% | t 75.000 | ETA 2m 20s | step 0.32s | KE 9.1617 | drift +0.41% | fluid 6.8664 | solid 2.2953
  Impulse FP iterations last/mean/max 22/19.61/24
Step  1600/2000   80.0% | t 80.000 | ETA 1m 51s | step 0.26s | KE 9.1611 | drift +0.40% | fluid 6.8540 | solid 2.3071
  Impulse FP iterations last/mean/max 18/19.60/24
Step  1700/2000   85.0% | t 85.000 | ETA 1m 23s | step 0.26s | KE 9.1723 | drift +0.53% | fluid 6.8606 | solid 2.3118
  Impulse FP iterations last/mean/max 18/19.61/24
Step  1800/2000   90.0% | t 90.000 | ETA 55s | step 0.26s | KE 9.1733 | drift +0.54% | fluid 6.9119 | solid 2.2613
  Impulse FP iterations last/mean/max 18/19.59/24
Step  1900/2000   95.0% | t 95.000 | ETA 27s | step 0.25s | KE 9.1799 | drift +0.61% | fluid 6.8904 | solid 2.2895
  Impulse FP iterations last/mean/max 18/19.62/24
Solver finished successfully - good job!
Results saved successfully.

================== Run summary ==================
  Bodies:            2
  Triangles / nodes: 256 / 516
  Timesteps:         2000  (dt = 0.05)
  Simulated time:    0 -> 100
  First-step setup:  0.516 s
  Mean time/step:    0.2757 s  (excl. first step)
  Total wall time:   9m 11s
  Impulse FP iters last/mean/max: 16 / 19.605 / 24
  Approx impulse solves/step:     19.605
  Impulse start cache hits/direct: 1999 / 1
  Impulse global drift P/H:       9.108211e-8 / 1.348820e-2
  Impulse per-body max drift P/H: 1.325345e-7 / 6.803177e-4
  CPU cores:         256 available, 8 Rayon worker thread(s)
  Started:           2026-06-22 20:09:23
  Finished:          2026-06-22 20:18:34
  Output file:       /work/e643/e643/shared/multi_ellip/studies/two_body_paper_sweeps/runs/spheroid_1_0p7_0p7/spheroid_1_0p7_0p7_rho0p03_E30_sep11_run01_impulse_noproj/multiple_body_complete.dat
================================================
