
================ Simulation setup ================
  Run label:         /work/e643/e643/shared/multi_ellip/studies/two_body_paper_sweeps/runs/spheroid_1_0p7_0p7/spheroid_1_0p7_0p7_rho0p1_E1p5_sep3_run02_impulse_noproj/
  Started:           2026-06-22 19:52:04
  Input file:        /work/e643/e643/shared/multi_ellip/studies/two_body_paper_sweeps/runs/spheroid_1_0p7_0p7/spheroid_1_0p7_0p7_rho0p1_E1p5_sep3_run02_impulse_noproj/input.txt
  Output file:       /work/e643/e643/shared/multi_ellip/studies/two_body_paper_sweeps/runs/spheroid_1_0p7_0p7/spheroid_1_0p7_0p7_rho0p1_E1p5_sep3_run02_impulse_noproj/multiple_body_complete.dat
  Bodies:            2
  Fluid density:     1
  Mesh:              ndiv 2 -> 256 triangles / 516 nodes
  Simulated time:    0 -> 100  (dt = 0.05, ~2000 steps)
  Output cadence:    every 1 step(s)
  Output rows:       ~2001
  Progress cadence:  every 100 step(s)
  CPU cores:         256 available, 8 Rayon worker thread(s)
  Strong coupling:   disabled
  Impulse scheme:    enabled
  Hamiltonian step:  disabled
  Hamiltonian midpt: disabled
  Variational step:  disabled
  Energy projection: disabled
  Projection particular metric: Euclidean
  Fluid KE gradient: disabled  (eps = 0.001, scale = 1, linear = 1, angular = 1)
  Fluid KE discrete gradient: disabled
  Impulse pair metric correction: disabled  (mode = pair discrete-gradient, cutoff = all pairs, inner/outer = 0/0, eps = 0.001, linear scale = 1, angular scale = 0)
  Impulse metric correction: disabled  (internal load constraint = disabled)
  Impulse variational defect probe: disabled
  Impulse quadratic pressure: disabled  (scale = 1)
  Added-mass stab:   disabled
  Exact BEM geometry: disabled
  Exact singular BEM: disabled
  Legacy singular SLP diagnostic: disabled
  Phi-dot blend:     0 (off)

  Solver guidance:
    - Strong coupling: use for stiff close-coupled runs; slower but more implicit.
    - Impulse scheme: use when impulse/momentum conservation or KE drift is the focus. Recommended.
    - Added-mass stab: use for higher mesh counts (ndiv > 3) to preserve stability - deprecated.
================================================
Solver starting - good luck!

Initial state:
  Body  1
    density:          0.100000
    shape axes ratio: (1.000000, 0.700000, 0.700000)
    initial KE ratio: 1.500000
    position:         (-1.500000, 0.000000, 0.000000)
    velocity:         (-1.368579, 1.414073, 2.891405)
    angular velocity: (-1.878433, 5.976132, -0.485548)
    orientation:      (w=0.577350, i=0.577350, j=0.577350, k=0.000000)
  Body  2
    density:          0.100000
    shape axes ratio: (1.000000, 0.700000, 0.700000)
    initial KE ratio: 1.500000
    position:         (1.500000, 0.000000, 0.000000)
    velocity:         (-1.356085, 1.401163, 2.865008)
    angular velocity: (-2.358124, 4.106958, 4.129233)
    orientation:      (w=0.577350, i=-0.577350, j=0.000000, k=0.577350)

Preparing first step: implicit scheme, no bootstrap passes required.
First step may take longer than later steps.

First step completed in 0.413 s.

Step   100/2000    5.0% | t 5.000 | ETA 7m 23s | step 0.22s | KE 51.7152 | drift +3.46% | fluid 38.6468 | solid 13.0684
  Impulse FP iterations last/mean/max 16/16.10/18
Step   200/2000   10.0% | t 10.000 | ETA 6m 48s | step 0.21s | KE 51.1464 | drift +2.33% | fluid 38.1618 | solid 12.9846
  Impulse FP iterations last/mean/max 15/15.91/18
Step   300/2000   15.0% | t 15.000 | ETA 6m 17s | step 0.19s | KE 51.6540 | drift +3.34% | fluid 38.7320 | solid 12.9220
  Impulse FP iterations last/mean/max 15/15.69/18
Step   400/2000   20.0% | t 20.000 | ETA 5m 48s | step 0.21s | KE 51.1669 | drift +2.37% | fluid 38.8669 | solid 12.3000
  Impulse FP iterations last/mean/max 15/15.48/18
Step   500/2000   25.0% | t 25.000 | ETA 5m 22s | step 0.23s | KE 51.5358 | drift +3.11% | fluid 38.4214 | solid 13.1144
  Impulse FP iterations last/mean/max 15/15.34/18
Step   600/2000   30.0% | t 30.000 | ETA 4m 58s | step 0.23s | KE 51.5317 | drift +3.10% | fluid 38.5371 | solid 12.9946
  Impulse FP iterations last/mean/max 16/15.24/18
Step   700/2000   35.0% | t 35.000 | ETA 4m 35s | step 0.18s | KE 51.5575 | drift +3.15% | fluid 38.5614 | solid 12.9961
  Impulse FP iterations last/mean/max 13/15.15/18
Step   800/2000   40.0% | t 40.000 | ETA 4m 12s | step 0.20s | KE 51.4557 | drift +2.94% | fluid 38.4312 | solid 13.0244
  Impulse FP iterations last/mean/max 15/15.09/18
Step   900/2000   45.0% | t 45.000 | ETA 3m 51s | step 0.24s | KE 51.3731 | drift +2.78% | fluid 38.9537 | solid 12.4194
  Impulse FP iterations last/mean/max 16/15.05/18
Step  1000/2000   50.0% | t 50.000 | ETA 3m 29s | step 0.20s | KE 51.3962 | drift +2.83% | fluid 38.6089 | solid 12.7873
  Impulse FP iterations last/mean/max 14/15.01/18
Step  1100/2000   55.0% | t 55.000 | ETA 3m 7s | step 0.21s | KE 51.4099 | drift +2.85% | fluid 38.3140 | solid 13.0960
  Impulse FP iterations last/mean/max 15/14.98/18
Step  1200/2000   60.0% | t 60.000 | ETA 2m 46s | step 0.20s | KE 51.4936 | drift +3.02% | fluid 38.5665 | solid 12.9271
  Impulse FP iterations last/mean/max 14/14.94/18
Step  1300/2000   65.0% | t 65.000 | ETA 2m 25s | step 0.20s | KE 51.3655 | drift +2.76% | fluid 38.2381 | solid 13.1274
  Impulse FP iterations last/mean/max 14/14.92/18
Step  1400/2000   70.0% | t 70.000 | ETA 2m 4s | step 0.20s | KE 51.3248 | drift +2.68% | fluid 38.7484 | solid 12.5763
  Impulse FP iterations last/mean/max 14/14.90/18
Step  1500/2000   75.0% | t 75.000 | ETA 1m 43s | step 0.21s | KE 51.3495 | drift +2.73% | fluid 38.8556 | solid 12.4939
  Impulse FP iterations last/mean/max 15/14.88/18
Step  1600/2000   80.0% | t 80.000 | ETA 1m 22s | step 0.23s | KE 51.3546 | drift +2.74% | fluid 38.3565 | solid 12.9981
  Impulse FP iterations last/mean/max 16/14.86/18
Step  1700/2000   85.0% | t 85.000 | ETA 1m 1s | step 0.19s | KE 51.4910 | drift +3.02% | fluid 38.6636 | solid 12.8274
  Impulse FP iterations last/mean/max 15/14.84/18
Step  1800/2000   90.0% | t 90.000 | ETA 41s | step 0.22s | KE 51.4126 | drift +2.86% | fluid 38.3836 | solid 13.0290
  Impulse FP iterations last/mean/max 15/14.83/18
Step  1900/2000   95.0% | t 95.000 | ETA 20s | step 0.18s | KE 51.3144 | drift +2.66% | fluid 38.4670 | solid 12.8474
  Impulse FP iterations last/mean/max 15/14.82/18
Solver finished successfully - good job!
Results saved successfully.

================== Run summary ==================
  Bodies:            2
  Triangles / nodes: 256 / 516
  Timesteps:         2000  (dt = 0.05)
  Simulated time:    0 -> 100
  First-step setup:  0.413 s
  Mean time/step:    0.2041 s  (excl. first step)
  Total wall time:   6m 48s
  Impulse FP iters last/mean/max: 15 / 14.806 / 18
  Approx impulse solves/step:     14.807
  Impulse start cache hits/direct: 1999 / 1
  Impulse global drift P/H:       2.943658e-8 / 6.016035e-2
  Impulse per-body max drift P/H: 4.180012e-8 / 1.113327e-2
  CPU cores:         256 available, 8 Rayon worker thread(s)
  Started:           2026-06-22 19:52:04
  Finished:          2026-06-22 19:58:53
  Output file:       /work/e643/e643/shared/multi_ellip/studies/two_body_paper_sweeps/runs/spheroid_1_0p7_0p7/spheroid_1_0p7_0p7_rho0p1_E1p5_sep3_run02_impulse_noproj/multiple_body_complete.dat
================================================
