
================ Simulation setup ================
  Run label:         /work/e643/e643/shared/multi_ellip/studies/departing_sphericity_sweep/runs/spheroid_oblate/homogeneous/spheroid_oblate_homogeneous_eps1_rho1_E0p5_sep8_run06_impulse_noproj/
  Started:           2026-06-24 02:30:09
  Input file:        /work/e643/e643/shared/multi_ellip/studies/departing_sphericity_sweep/runs/spheroid_oblate/homogeneous/spheroid_oblate_homogeneous_eps1_rho1_E0p5_sep8_run06_impulse_noproj/input.txt
  Output file:       /work/e643/e643/shared/multi_ellip/studies/departing_sphericity_sweep/runs/spheroid_oblate/homogeneous/spheroid_oblate_homogeneous_eps1_rho1_E0p5_sep8_run06_impulse_noproj/multiple_body_complete.dat
  Bodies:            2
  Fluid density:     1
  Mesh:              ndiv 2 -> 256 triangles / 516 nodes
  Simulated time:    0 -> 100  (dt = 0.05, ~2000 steps)
  Output cadence:    every 1 step(s)
  Output rows:       ~2001
  Progress cadence:  every 100 step(s)
  CPU cores:         256 available, 8 Rayon worker thread(s)
  Strong coupling:   disabled
  Impulse scheme:    enabled
  Hamiltonian step:  disabled
  Hamiltonian midpt: disabled
  Variational step:  disabled
  Energy projection: disabled
  Projection particular metric: Euclidean
  Fluid KE gradient: disabled  (eps = 0.001, scale = 1, linear = 1, angular = 1)
  Fluid KE discrete gradient: disabled
  Impulse pair metric correction: disabled  (mode = pair discrete-gradient, cutoff = all pairs, inner/outer = 0/0, eps = 0.001, linear scale = 1, angular scale = 0)
  Impulse metric correction: disabled  (internal load constraint = disabled)
  Impulse variational defect probe: disabled
  Impulse quadratic pressure: disabled  (scale = 1)
  Added-mass stab:   disabled
  Exact BEM geometry: disabled
  Exact singular BEM: disabled
  Legacy singular SLP diagnostic: disabled
  Phi-dot blend:     0 (off)

  Solver guidance:
    - Strong coupling: use for stiff close-coupled runs; slower but more implicit.
    - Impulse scheme: use when impulse/momentum conservation or KE drift is the focus. Recommended.
    - Added-mass stab: use for higher mesh counts (ndiv > 3) to preserve stability - deprecated.
================================================
Solver starting - good luck!

Initial state:
  Body  1
    density:          1.000000
    shape axes ratio: (1.000000, 1.000000, 0.125000)
    initial KE ratio: 0.500000
    position:         (-4.000000, 0.000000, 0.000000)
    velocity:         (3.158380, 5.120416, -5.321190)
    angular velocity: (2.287719, -5.832522, -0.475869)
    orientation:      (w=-0.218658, i=-0.791085, j=-0.059443, k=-0.568189)
  Body  2
    density:          1.000000
    shape axes ratio: (1.000000, 1.000000, 0.125000)
    initial KE ratio: 0.500000
    position:         (4.000000, 0.000000, 0.000000)
    velocity:         (4.232184, 6.861284, -7.130319)
    angular velocity: (2.578505, 0.136198, 5.728104)
    orientation:      (w=-0.416429, i=0.443039, j=-0.793615, k=0.021874)

Preparing first step: implicit scheme, no bootstrap passes required.
First step may take longer than later steps.

First step completed in 0.525 s.

Step   100/2000    5.0% | t 5.000 | ETA 11m 3s | step 0.30s | KE 2075.2071 | drift +0.10% | fluid 1322.9403 | solid 752.2668
  Impulse FP iterations last/mean/max 21/23.29/30
Step   200/2000   10.0% | t 10.000 | ETA 10m 24s | step 0.37s | KE 2074.5293 | drift +0.07% | fluid 1257.9767 | solid 816.5526
  Impulse FP iterations last/mean/max 25/23.20/30
Step   300/2000   15.0% | t 15.000 | ETA 9m 45s | step 0.35s | KE 2069.1256 | drift -0.19% | fluid 1570.7078 | solid 498.4178
  Impulse FP iterations last/mean/max 23/23.08/30
Step   400/2000   20.0% | t 20.000 | ETA 9m 7s | step 0.30s | KE 2072.8998 | drift -0.01% | fluid 1357.8465 | solid 715.0533
  Impulse FP iterations last/mean/max 21/23.03/30
Step   500/2000   25.0% | t 25.000 | ETA 8m 31s | step 0.36s | KE 2075.2367 | drift +0.10% | fluid 1309.8314 | solid 765.4053
  Impulse FP iterations last/mean/max 25/22.99/30
Step   600/2000   30.0% | t 30.000 | ETA 7m 57s | step 0.30s | KE 2072.2753 | drift -0.04% | fluid 1445.2131 | solid 627.0622
  Impulse FP iterations last/mean/max 21/22.98/30
Step   700/2000   35.0% | t 35.000 | ETA 7m 18s | step 0.24s | KE 2071.4534 | drift -0.08% | fluid 1333.8460 | solid 737.6074
  Impulse FP iterations last/mean/max 19/23.05/30
Step   800/2000   40.0% | t 40.000 | ETA 6m 38s | step 0.30s | KE 2072.2074 | drift -0.04% | fluid 1485.8798 | solid 586.3276
  Impulse FP iterations last/mean/max 27/23.02/30
Step   900/2000   45.0% | t 45.000 | ETA 5m 55s | step 0.24s | KE 2074.3213 | drift +0.06% | fluid 1376.6635 | solid 697.6578
  Impulse FP iterations last/mean/max 22/23.04/30
Step  1000/2000   50.0% | t 50.000 | ETA 5m 16s | step 0.24s | KE 2073.8174 | drift +0.03% | fluid 1228.3668 | solid 845.4506
  Impulse FP iterations last/mean/max 23/23.06/30
Step  1100/2000   55.0% | t 55.000 | ETA 4m 36s | step 0.21s | KE 2069.8384 | drift -0.16% | fluid 1555.3116 | solid 514.5268
  Impulse FP iterations last/mean/max 25/23.08/30
Step  1200/2000   60.0% | t 60.000 | ETA 3m 58s | step 0.23s | KE 2073.2680 | drift +0.01% | fluid 1407.6194 | solid 665.6485
  Impulse FP iterations last/mean/max 28/23.11/30
Step  1300/2000   65.0% | t 65.000 | ETA 3m 23s | step 0.22s | KE 2074.9307 | drift +0.09% | fluid 1259.8887 | solid 815.0421
  Impulse FP iterations last/mean/max 23/23.13/30
Step  1400/2000   70.0% | t 70.000 | ETA 2m 51s | step 0.20s | KE 2071.4642 | drift -0.08% | fluid 1462.3125 | solid 609.1517
  Impulse FP iterations last/mean/max 22/23.10/30
Step  1500/2000   75.0% | t 75.000 | ETA 2m 19s | step 0.18s | KE 2072.1476 | drift -0.05% | fluid 1360.0343 | solid 712.1132
  Impulse FP iterations last/mean/max 19/23.07/30
Step  1600/2000   80.0% | t 80.000 | ETA 1m 50s | step 0.22s | KE 2073.1377 | drift +0.00% | fluid 1433.6717 | solid 639.4660
  Impulse FP iterations last/mean/max 24/23.06/30
Step  1700/2000   85.0% | t 85.000 | ETA 1m 21s | step 0.21s | KE 2072.9048 | drift -0.01% | fluid 1420.8474 | solid 652.0574
  Impulse FP iterations last/mean/max 23/23.05/30
Step  1800/2000   90.0% | t 90.000 | ETA 53s | step 0.20s | KE 2073.6452 | drift +0.02% | fluid 1222.0021 | solid 851.6431
  Impulse FP iterations last/mean/max 22/23.05/30
Step  1900/2000   95.0% | t 95.000 | ETA 26s | step 0.22s | KE 2071.2418 | drift -0.09% | fluid 1518.7650 | solid 552.4768
  Impulse FP iterations last/mean/max 24/23.06/30
Solver finished successfully - good job!
Results saved successfully.

================== Run summary ==================
  Bodies:            2
  Triangles / nodes: 256 / 516
  Timesteps:         2000  (dt = 0.05)
  Simulated time:    0 -> 100
  First-step setup:  0.525 s
  Mean time/step:    0.2623 s  (excl. first step)
  Total wall time:   8m 44s
  Impulse FP iters last/mean/max: 20 / 23.053 / 30
  Approx impulse solves/step:     23.053
  Impulse start cache hits/direct: 1999 / 1
  Impulse global drift P/H:       6.677787e-10 / 6.800579e-4
  Impulse per-body max drift P/H: 1.469012e-9 / 1.661292e-3
  CPU cores:         256 available, 8 Rayon worker thread(s)
  Started:           2026-06-24 02:30:09
  Finished:          2026-06-24 02:38:54
  Output file:       /work/e643/e643/shared/multi_ellip/studies/departing_sphericity_sweep/runs/spheroid_oblate/homogeneous/spheroid_oblate_homogeneous_eps1_rho1_E0p5_sep8_run06_impulse_noproj/multiple_body_complete.dat
================================================
