
================ Simulation setup ================
  Run label:         /work/e643/e643/shared/multi_ellip/studies/departing_sphericity_sweep/runs/triaxial/homogeneous/triaxial_homogeneous_eps0p1_rho1_E0p5_sep8_run06_impulse_noproj/
  Started:           2026-06-24 02:30:21
  Input file:        /work/e643/e643/shared/multi_ellip/studies/departing_sphericity_sweep/runs/triaxial/homogeneous/triaxial_homogeneous_eps0p1_rho1_E0p5_sep8_run06_impulse_noproj/input.txt
  Output file:       /work/e643/e643/shared/multi_ellip/studies/departing_sphericity_sweep/runs/triaxial/homogeneous/triaxial_homogeneous_eps0p1_rho1_E0p5_sep8_run06_impulse_noproj/multiple_body_complete.dat
  Bodies:            2
  Fluid density:     1
  Mesh:              ndiv 2 -> 256 triangles / 516 nodes
  Simulated time:    0 -> 100  (dt = 0.05, ~2000 steps)
  Output cadence:    every 1 step(s)
  Output rows:       ~2001
  Progress cadence:  every 100 step(s)
  CPU cores:         256 available, 8 Rayon worker thread(s)
  Strong coupling:   disabled
  Impulse scheme:    enabled
  Hamiltonian step:  disabled
  Hamiltonian midpt: disabled
  Variational step:  disabled
  Energy projection: disabled
  Projection particular metric: Euclidean
  Fluid KE gradient: disabled  (eps = 0.001, scale = 1, linear = 1, angular = 1)
  Fluid KE discrete gradient: disabled
  Impulse pair metric correction: disabled  (mode = pair discrete-gradient, cutoff = all pairs, inner/outer = 0/0, eps = 0.001, linear scale = 1, angular scale = 0)
  Impulse metric correction: disabled  (internal load constraint = disabled)
  Impulse variational defect probe: disabled
  Impulse quadratic pressure: disabled  (scale = 1)
  Added-mass stab:   disabled
  Exact BEM geometry: disabled
  Exact singular BEM: disabled
  Legacy singular SLP diagnostic: disabled
  Phi-dot blend:     0 (off)

  Solver guidance:
    - Strong coupling: use for stiff close-coupled runs; slower but more implicit.
    - Impulse scheme: use when impulse/momentum conservation or KE drift is the focus. Recommended.
    - Added-mass stab: use for higher mesh counts (ndiv > 3) to preserve stability - deprecated.
================================================
Solver starting - good luck!

Initial state:
  Body  1
    density:          1.000000
    shape axes ratio: (1.000000, 0.909091, 0.826446)
    initial KE ratio: 0.500000
    position:         (-4.000000, 0.000000, 0.000000)
    velocity:         (-5.483540, 0.264680, 1.518131)
    angular velocity: (-0.164600, -5.941620, -2.036782)
    orientation:      (w=-0.312689, i=0.801002, j=0.159825, k=0.484849)
  Body  2
    density:          1.000000
    shape axes ratio: (1.000000, 0.909091, 0.826446)
    initial KE ratio: 0.500000
    position:         (4.000000, 0.000000, 0.000000)
    velocity:         (-5.540838, 0.267446, 1.533994)
    angular velocity: (1.995188, 4.092366, 4.330149)
    orientation:      (w=-0.659435, i=-0.048886, j=0.503406, k=0.556181)

Preparing first step: implicit scheme, no bootstrap passes required.
First step may take longer than later steps.

First step completed in 0.265 s.

Step   100/2000    5.0% | t 5.000 | ETA 4m 5s | step 0.11s | KE 293.8199 | drift +1.51% | fluid 84.2879 | solid 209.5320
  Impulse FP iterations last/mean/max 9/9.07/10
Step   200/2000   10.0% | t 10.000 | ETA 3m 53s | step 0.12s | KE 302.6023 | drift +4.54% | fluid 81.3828 | solid 221.2195
  Impulse FP iterations last/mean/max 9/9.04/10
Step   300/2000   15.0% | t 15.000 | ETA 3m 40s | step 0.13s | KE 313.4058 | drift +8.27% | fluid 78.9151 | solid 234.4907
  Impulse FP iterations last/mean/max 9/9.03/10
Step   400/2000   20.0% | t 20.000 | ETA 3m 27s | step 0.14s | KE 323.0387 | drift +11.60% | fluid 80.5434 | solid 242.4953
  Impulse FP iterations last/mean/max 9/9.02/10
Step   500/2000   25.0% | t 25.000 | ETA 3m 14s | step 0.13s | KE 329.9609 | drift +13.99% | fluid 79.7772 | solid 250.1837
  Impulse FP iterations last/mean/max 9/9.02/10
Step   600/2000   30.0% | t 30.000 | ETA 3m 1s | step 0.13s | KE 333.9813 | drift +15.38% | fluid 79.6015 | solid 254.3798
  Impulse FP iterations last/mean/max 9/9.03/10
Step   700/2000   35.0% | t 35.000 | ETA 2m 48s | step 0.13s | KE 335.7615 | drift +15.99% | fluid 82.8410 | solid 252.9205
  Impulse FP iterations last/mean/max 9/9.02/10
Step   800/2000   40.0% | t 40.000 | ETA 2m 35s | step 0.12s | KE 337.2811 | drift +16.52% | fluid 83.6455 | solid 253.6356
  Impulse FP iterations last/mean/max 9/9.02/10
Step   900/2000   45.0% | t 45.000 | ETA 2m 22s | step 0.12s | KE 338.5109 | drift +16.94% | fluid 84.0062 | solid 254.5047
  Impulse FP iterations last/mean/max 9/9.02/10
Step  1000/2000   50.0% | t 50.000 | ETA 2m 9s | step 0.12s | KE 339.5062 | drift +17.29% | fluid 81.5853 | solid 257.9210
  Impulse FP iterations last/mean/max 9/9.02/10
Step  1100/2000   55.0% | t 55.000 | ETA 1m 56s | step 0.14s | KE 339.8511 | drift +17.41% | fluid 81.8414 | solid 258.0097
  Impulse FP iterations last/mean/max 9/9.02/10
Step  1200/2000   60.0% | t 60.000 | ETA 1m 43s | step 0.13s | KE 340.5797 | drift +17.66% | fluid 79.2637 | solid 261.3160
  Impulse FP iterations last/mean/max 9/9.02/10
Step  1300/2000   65.0% | t 65.000 | ETA 1m 30s | step 0.14s | KE 340.8048 | drift +17.74% | fluid 80.7754 | solid 260.0294
  Impulse FP iterations last/mean/max 9/9.02/10
Step  1400/2000   70.0% | t 70.000 | ETA 1m 17s | step 0.14s | KE 341.2198 | drift +17.88% | fluid 79.5369 | solid 261.6829
  Impulse FP iterations last/mean/max 9/9.02/10
Step  1500/2000   75.0% | t 75.000 | ETA 1m 4s | step 0.13s | KE 341.1087 | drift +17.84% | fluid 80.3509 | solid 260.7578
  Impulse FP iterations last/mean/max 9/9.02/10
Step  1600/2000   80.0% | t 80.000 | ETA 51s | step 0.14s | KE 340.9604 | drift +17.79% | fluid 81.4361 | solid 259.5243
  Impulse FP iterations last/mean/max 9/9.02/10
Step  1700/2000   85.0% | t 85.000 | ETA 38s | step 0.12s | KE 341.0695 | drift +17.83% | fluid 80.6727 | solid 260.3968
  Impulse FP iterations last/mean/max 9/9.02/10
Step  1800/2000   90.0% | t 90.000 | ETA 25s | step 0.12s | KE 340.9540 | drift +17.79% | fluid 82.0224 | solid 258.9315
  Impulse FP iterations last/mean/max 9/9.02/10
Step  1900/2000   95.0% | t 95.000 | ETA 12s | step 0.10s | KE 341.0893 | drift +17.84% | fluid 80.2023 | solid 260.8869
  Impulse FP iterations last/mean/max 9/9.02/10
Solver finished successfully - good job!
Results saved successfully.

================== Run summary ==================
  Bodies:            2
  Triangles / nodes: 256 / 516
  Timesteps:         2000  (dt = 0.05)
  Simulated time:    0 -> 100
  First-step setup:  0.265 s
  Mean time/step:    0.1270 s  (excl. first step)
  Total wall time:   4m 14s
  Impulse FP iters last/mean/max: 9 / 9.021 / 10
  Approx impulse solves/step:     9.021
  Impulse start cache hits/direct: 1999 / 1
  Impulse global drift P/H:       2.712389e-8 / 1.860644e-2
  Impulse per-body max drift P/H: 4.722545e-8 / 1.011342e-2
  CPU cores:         256 available, 8 Rayon worker thread(s)
  Started:           2026-06-24 02:30:21
  Finished:          2026-06-24 02:34:35
  Output file:       /work/e643/e643/shared/multi_ellip/studies/departing_sphericity_sweep/runs/triaxial/homogeneous/triaxial_homogeneous_eps0p1_rho1_E0p5_sep8_run06_impulse_noproj/multiple_body_complete.dat
================================================
