
================ Simulation setup ================
  Run label:         /work/e643/e643/shared/multi_ellip/studies/departing_sphericity_sweep/runs/spheroid_prolate/homogeneous/spheroid_prolate_homogeneous_eps0p01_rho1_E0p5_sep8_run06_impulse_noproj/
  Started:           2026-06-24 02:26:40
  Input file:        /work/e643/e643/shared/multi_ellip/studies/departing_sphericity_sweep/runs/spheroid_prolate/homogeneous/spheroid_prolate_homogeneous_eps0p01_rho1_E0p5_sep8_run06_impulse_noproj/input.txt
  Output file:       /work/e643/e643/shared/multi_ellip/studies/departing_sphericity_sweep/runs/spheroid_prolate/homogeneous/spheroid_prolate_homogeneous_eps0p01_rho1_E0p5_sep8_run06_impulse_noproj/multiple_body_complete.dat
  Bodies:            2
  Fluid density:     1
  Mesh:              ndiv 2 -> 256 triangles / 516 nodes
  Simulated time:    0 -> 100  (dt = 0.05, ~2000 steps)
  Output cadence:    every 1 step(s)
  Output rows:       ~2001
  Progress cadence:  every 100 step(s)
  CPU cores:         256 available, 8 Rayon worker thread(s)
  Strong coupling:   disabled
  Impulse scheme:    enabled
  Hamiltonian step:  disabled
  Hamiltonian midpt: disabled
  Variational step:  disabled
  Energy projection: disabled
  Projection particular metric: Euclidean
  Fluid KE gradient: disabled  (eps = 0.001, scale = 1, linear = 1, angular = 1)
  Fluid KE discrete gradient: disabled
  Impulse pair metric correction: disabled  (mode = pair discrete-gradient, cutoff = all pairs, inner/outer = 0/0, eps = 0.001, linear scale = 1, angular scale = 0)
  Impulse metric correction: disabled  (internal load constraint = disabled)
  Impulse variational defect probe: disabled
  Impulse quadratic pressure: disabled  (scale = 1)
  Added-mass stab:   disabled
  Exact BEM geometry: disabled
  Exact singular BEM: disabled
  Legacy singular SLP diagnostic: disabled
  Phi-dot blend:     0 (off)

  Solver guidance:
    - Strong coupling: use for stiff close-coupled runs; slower but more implicit.
    - Impulse scheme: use when impulse/momentum conservation or KE drift is the focus. Recommended.
    - Added-mass stab: use for higher mesh counts (ndiv > 3) to preserve stability - deprecated.
================================================
Solver starting - good luck!

Initial state:
  Body  1
    density:          1.000000
    shape axes ratio: (1.000000, 0.970590, 0.970590)
    initial KE ratio: 0.500000
    position:         (-4.000000, 0.000000, 0.000000)
    velocity:         (1.231850, 5.366261, -1.161597)
    angular velocity: (-3.214440, -4.238140, 3.344244)
    orientation:      (w=0.443365, i=-0.341440, j=-0.795410, k=-0.232744)
  Body  2
    density:          1.000000
    shape axes ratio: (1.000000, 0.970590, 0.970590)
    initial KE ratio: 0.500000
    position:         (4.000000, 0.000000, 0.000000)
    velocity:         (1.233451, 5.373238, -1.163107)
    angular velocity: (2.630070, 3.236446, -4.699635)
    orientation:      (w=-0.295085, i=0.436684, j=0.522553, k=-0.670202)

Preparing first step: implicit scheme, no bootstrap passes required.
First step may take longer than later steps.

First step completed in 0.315 s.

Step   100/2000    5.0% | t 5.000 | ETA 3m 29s | step 0.10s | KE 273.2640 | drift +0.36% | fluid 72.8487 | solid 200.4153
  Impulse FP iterations last/mean/max 7/7.74/8
Step   200/2000   10.0% | t 10.000 | ETA 3m 19s | step 0.12s | KE 273.7759 | drift +0.55% | fluid 73.1210 | solid 200.6549
  Impulse FP iterations last/mean/max 8/7.76/8
Step   300/2000   15.0% | t 15.000 | ETA 3m 8s | step 0.11s | KE 274.1190 | drift +0.67% | fluid 73.1609 | solid 200.9580
  Impulse FP iterations last/mean/max 8/7.78/8
Step   400/2000   20.0% | t 20.000 | ETA 2m 57s | step 0.11s | KE 274.4172 | drift +0.78% | fluid 72.9343 | solid 201.4829
  Impulse FP iterations last/mean/max 8/7.79/8
Step   500/2000   25.0% | t 25.000 | ETA 2m 45s | step 0.12s | KE 274.6535 | drift +0.87% | fluid 73.1654 | solid 201.4880
  Impulse FP iterations last/mean/max 8/7.78/8
Step   600/2000   30.0% | t 30.000 | ETA 2m 31s | step 0.10s | KE 274.8738 | drift +0.95% | fluid 72.6905 | solid 202.1833
  Impulse FP iterations last/mean/max 8/7.79/8
Step   700/2000   35.0% | t 35.000 | ETA 2m 18s | step 0.11s | KE 274.9747 | drift +0.99% | fluid 73.2902 | solid 201.6845
  Impulse FP iterations last/mean/max 8/7.80/8
Step   800/2000   40.0% | t 40.000 | ETA 2m 7s | step 0.11s | KE 275.0337 | drift +1.01% | fluid 72.7000 | solid 202.3336
  Impulse FP iterations last/mean/max 8/7.80/8
Step   900/2000   45.0% | t 45.000 | ETA 1m 57s | step 0.11s | KE 275.0657 | drift +1.02% | fluid 73.0698 | solid 201.9959
  Impulse FP iterations last/mean/max 8/7.80/8
Step  1000/2000   50.0% | t 50.000 | ETA 1m 47s | step 0.12s | KE 275.2354 | drift +1.08% | fluid 72.8258 | solid 202.4096
  Impulse FP iterations last/mean/max 8/7.80/8
Step  1100/2000   55.0% | t 55.000 | ETA 1m 36s | step 0.12s | KE 275.5903 | drift +1.21% | fluid 73.1553 | solid 202.4350
  Impulse FP iterations last/mean/max 8/7.81/8
Step  1200/2000   60.0% | t 60.000 | ETA 1m 26s | step 0.11s | KE 276.2450 | drift +1.45% | fluid 72.6469 | solid 203.5981
  Impulse FP iterations last/mean/max 8/7.81/8
Step  1300/2000   65.0% | t 65.000 | ETA 1m 15s | step 0.10s | KE 277.0985 | drift +1.77% | fluid 73.3384 | solid 203.7602
  Impulse FP iterations last/mean/max 7/7.81/8
Step  1400/2000   70.0% | t 70.000 | ETA 1m 4s | step 0.12s | KE 278.1453 | drift +2.15% | fluid 73.2812 | solid 204.8641
  Impulse FP iterations last/mean/max 8/7.81/8
Step  1500/2000   75.0% | t 75.000 | ETA 54s | step 0.11s | KE 279.3200 | drift +2.58% | fluid 72.5103 | solid 206.8097
  Impulse FP iterations last/mean/max 8/7.81/8
Step  1600/2000   80.0% | t 80.000 | ETA 43s | step 0.11s | KE 280.2999 | drift +2.94% | fluid 73.2502 | solid 207.0497
  Impulse FP iterations last/mean/max 8/7.80/8
Step  1700/2000   85.0% | t 85.000 | ETA 32s | step 0.12s | KE 281.1840 | drift +3.27% | fluid 73.2423 | solid 207.9418
  Impulse FP iterations last/mean/max 8/7.80/8
Step  1800/2000   90.0% | t 90.000 | ETA 21s | step 0.10s | KE 281.7231 | drift +3.47% | fluid 73.2913 | solid 208.4317
  Impulse FP iterations last/mean/max 7/7.80/8
Step  1900/2000   95.0% | t 95.000 | ETA 10s | step 0.10s | KE 282.0219 | drift +3.58% | fluid 72.7820 | solid 209.2399
  Impulse FP iterations last/mean/max 8/7.80/8
Solver finished successfully - good job!
Results saved successfully.

================== Run summary ==================
  Bodies:            2
  Triangles / nodes: 256 / 516
  Timesteps:         2000  (dt = 0.05)
  Simulated time:    0 -> 100
  First-step setup:  0.315 s
  Mean time/step:    0.1074 s  (excl. first step)
  Total wall time:   3m 35s
  Impulse FP iters last/mean/max: 8 / 7.800 / 8
  Approx impulse solves/step:     7.800
  Impulse start cache hits/direct: 1999 / 1
  Impulse global drift P/H:       6.929488e-9 / 5.013615e-2
  Impulse per-body max drift P/H: 1.756938e-8 / 1.856298e-3
  CPU cores:         256 available, 8 Rayon worker thread(s)
  Started:           2026-06-24 02:26:40
  Finished:          2026-06-24 02:30:15
  Output file:       /work/e643/e643/shared/multi_ellip/studies/departing_sphericity_sweep/runs/spheroid_prolate/homogeneous/spheroid_prolate_homogeneous_eps0p01_rho1_E0p5_sep8_run06_impulse_noproj/multiple_body_complete.dat
================================================
