
================ Simulation setup ================
  Run label:         /work/e643/e643/shared/multi_ellip/studies/departing_sphericity_sweep/runs/triaxial/heterogeneous_aspherical/triaxial_heterogeneous_aspherical_eps1_rho1_E0p5_sep8_run10_impulse_noproj/
  Started:           2026-06-24 03:11:09
  Input file:        /work/e643/e643/shared/multi_ellip/studies/departing_sphericity_sweep/runs/triaxial/heterogeneous_aspherical/triaxial_heterogeneous_aspherical_eps1_rho1_E0p5_sep8_run10_impulse_noproj/input.txt
  Output file:       /work/e643/e643/shared/multi_ellip/studies/departing_sphericity_sweep/runs/triaxial/heterogeneous_aspherical/triaxial_heterogeneous_aspherical_eps1_rho1_E0p5_sep8_run10_impulse_noproj/multiple_body_complete.dat
  Bodies:            2
  Fluid density:     1
  Mesh:              ndiv 2 -> 256 triangles / 516 nodes
  Simulated time:    0 -> 100  (dt = 0.05, ~2000 steps)
  Output cadence:    every 1 step(s)
  Output rows:       ~2001
  Progress cadence:  every 100 step(s)
  CPU cores:         256 available, 8 Rayon worker thread(s)
  Strong coupling:   disabled
  Impulse scheme:    enabled
  Hamiltonian step:  disabled
  Hamiltonian midpt: disabled
  Variational step:  disabled
  Energy projection: disabled
  Projection particular metric: Euclidean
  Fluid KE gradient: disabled  (eps = 0.001, scale = 1, linear = 1, angular = 1)
  Fluid KE discrete gradient: disabled
  Impulse pair metric correction: disabled  (mode = pair discrete-gradient, cutoff = all pairs, inner/outer = 0/0, eps = 0.001, linear scale = 1, angular scale = 0)
  Impulse metric correction: disabled  (internal load constraint = disabled)
  Impulse variational defect probe: disabled
  Impulse quadratic pressure: disabled  (scale = 1)
  Added-mass stab:   disabled
  Exact BEM geometry: disabled
  Exact singular BEM: disabled
  Legacy singular SLP diagnostic: disabled
  Phi-dot blend:     0 (off)

  Solver guidance:
    - Strong coupling: use for stiff close-coupled runs; slower but more implicit.
    - Impulse scheme: use when impulse/momentum conservation or KE drift is the focus. Recommended.
    - Added-mass stab: use for higher mesh counts (ndiv > 3) to preserve stability - deprecated.
================================================
Solver starting - good luck!

Initial state:
  Body  1
    density:          1.000000
    shape axes ratio: (1.000000, 0.500000, 0.250000)
    initial KE ratio: 0.500000
    position:         (-4.000000, 0.000000, 0.000000)
    velocity:         (-2.724564, -1.813563, 7.450281)
    angular velocity: (0.882361, 6.210220, -0.364729)
    orientation:      (w=0.004669, i=-0.136307, j=-0.965905, k=-0.220058)
  Body  2
    density:          1.000000
    shape axes ratio: (1.000000, 0.500000, 0.250000)
    initial KE ratio: 0.500000
    position:         (4.000000, 0.000000, 0.000000)
    velocity:         (-2.857355, -1.901953, 7.813396)
    angular velocity: (-1.310193, -3.440380, 5.091718)
    orientation:      (w=-0.359719, i=-0.846854, j=0.218507, k=-0.325109)

Preparing first step: implicit scheme, no bootstrap passes required.
First step may take longer than later steps.

First step completed in 0.341 s.

Step   100/2000    5.0% | t 5.000 | ETA 5m 16s | step 0.18s | KE 838.3450 | drift -0.12% | fluid 391.8059 | solid 446.5392
  Impulse FP iterations last/mean/max 17/17.34/20
Step   200/2000   10.0% | t 10.000 | ETA 5m 6s | step 0.17s | KE 839.0911 | drift -0.03% | fluid 369.8833 | solid 469.2077
  Impulse FP iterations last/mean/max 16/17.23/20
Step   300/2000   15.0% | t 15.000 | ETA 4m 52s | step 0.16s | KE 839.2375 | drift -0.02% | fluid 381.0479 | solid 458.1897
  Impulse FP iterations last/mean/max 16/17.28/21
Step   400/2000   20.0% | t 20.000 | ETA 4m 32s | step 0.17s | KE 840.7770 | drift +0.17% | fluid 365.6353 | solid 475.1417
  Impulse FP iterations last/mean/max 18/17.27/21
Step   500/2000   25.0% | t 25.000 | ETA 4m 14s | step 0.16s | KE 839.9829 | drift +0.07% | fluid 325.6425 | solid 514.3404
  Impulse FP iterations last/mean/max 17/17.27/21
Step   600/2000   30.0% | t 30.000 | ETA 3m 55s | step 0.17s | KE 838.9332 | drift -0.05% | fluid 302.1135 | solid 536.8197
  Impulse FP iterations last/mean/max 17/17.28/21
Step   700/2000   35.0% | t 35.000 | ETA 3m 38s | step 0.16s | KE 841.1426 | drift +0.21% | fluid 346.1560 | solid 494.9866
  Impulse FP iterations last/mean/max 17/17.28/21
Step   800/2000   40.0% | t 40.000 | ETA 3m 20s | step 0.17s | KE 839.4346 | drift +0.01% | fluid 410.5423 | solid 428.8923
  Impulse FP iterations last/mean/max 18/17.30/21
Step   900/2000   45.0% | t 45.000 | ETA 3m 3s | step 0.17s | KE 835.8916 | drift -0.42% | fluid 423.0972 | solid 412.7944
  Impulse FP iterations last/mean/max 18/17.29/21
Step  1000/2000   50.0% | t 50.000 | ETA 2m 46s | step 0.16s | KE 837.0398 | drift -0.28% | fluid 381.2644 | solid 455.7754
  Impulse FP iterations last/mean/max 17/17.28/21
Step  1100/2000   55.0% | t 55.000 | ETA 2m 30s | step 0.17s | KE 839.1792 | drift -0.02% | fluid 372.4451 | solid 466.7341
  Impulse FP iterations last/mean/max 17/17.27/21
Step  1200/2000   60.0% | t 60.000 | ETA 2m 13s | step 0.18s | KE 838.6137 | drift -0.09% | fluid 393.8515 | solid 444.7622
  Impulse FP iterations last/mean/max 18/17.27/21
Step  1300/2000   65.0% | t 65.000 | ETA 1m 57s | step 0.18s | KE 838.1114 | drift -0.15% | fluid 369.0103 | solid 469.1011
  Impulse FP iterations last/mean/max 18/17.28/22
Step  1400/2000   70.0% | t 70.000 | ETA 1m 40s | step 0.16s | KE 839.0321 | drift -0.04% | fluid 307.4059 | solid 531.6262
  Impulse FP iterations last/mean/max 16/17.28/22
Step  1500/2000   75.0% | t 75.000 | ETA 1m 24s | step 0.15s | KE 838.3312 | drift -0.12% | fluid 299.7494 | solid 538.5818
  Impulse FP iterations last/mean/max 16/17.27/22
Step  1600/2000   80.0% | t 80.000 | ETA 1m 7s | step 0.17s | KE 838.7164 | drift -0.08% | fluid 375.0234 | solid 463.6931
  Impulse FP iterations last/mean/max 17/17.27/22
Step  1700/2000   85.0% | t 85.000 | ETA 50s | step 0.17s | KE 837.5522 | drift -0.22% | fluid 422.5863 | solid 414.9659
  Impulse FP iterations last/mean/max 18/17.27/22
Step  1800/2000   90.0% | t 90.000 | ETA 33s | step 0.18s | KE 836.4421 | drift -0.35% | fluid 398.4884 | solid 437.9537
  Impulse FP iterations last/mean/max 19/17.27/22
Step  1900/2000   95.0% | t 95.000 | ETA 16s | step 0.17s | KE 836.4616 | drift -0.35% | fluid 378.6102 | solid 457.8514
  Impulse FP iterations last/mean/max 18/17.26/22
Solver finished successfully - good job!
Results saved successfully.

================== Run summary ==================
  Bodies:            2
  Triangles / nodes: 256 / 516
  Timesteps:         2000  (dt = 0.05)
  Simulated time:    0 -> 100
  First-step setup:  0.341 s
  Mean time/step:    0.1670 s  (excl. first step)
  Total wall time:   5m 34s
  Impulse FP iters last/mean/max: 18 / 17.269 / 22
  Approx impulse solves/step:     17.269
  Impulse start cache hits/direct: 1999 / 1
  Impulse global drift P/H:       3.374730e-9 / 1.662944e-2
  Impulse per-body max drift P/H: 6.514854e-9 / 9.942633e-3
  CPU cores:         256 available, 8 Rayon worker thread(s)
  Started:           2026-06-24 03:11:09
  Finished:          2026-06-24 03:16:44
  Output file:       /work/e643/e643/shared/multi_ellip/studies/departing_sphericity_sweep/runs/triaxial/heterogeneous_aspherical/triaxial_heterogeneous_aspherical_eps1_rho1_E0p5_sep8_run10_impulse_noproj/multiple_body_complete.dat
================================================
