
================ Simulation setup ================
  Run label:         /work/e643/e643/shared/multi_ellip/studies/two_body_paper_sweeps/runs/spheroid_1_0p7_0p7/spheroid_1_0p7_0p7_rho10_E1p5_sep8_run01_impulse_noproj/
  Started:           2026-06-22 19:23:17
  Input file:        /work/e643/e643/shared/multi_ellip/studies/two_body_paper_sweeps/runs/spheroid_1_0p7_0p7/spheroid_1_0p7_0p7_rho10_E1p5_sep8_run01_impulse_noproj/input.txt
  Output file:       /work/e643/e643/shared/multi_ellip/studies/two_body_paper_sweeps/runs/spheroid_1_0p7_0p7/spheroid_1_0p7_0p7_rho10_E1p5_sep8_run01_impulse_noproj/multiple_body_complete.dat
  Bodies:            2
  Fluid density:     1
  Mesh:              ndiv 2 -> 256 triangles / 516 nodes
  Simulated time:    0 -> 100  (dt = 0.05, ~2000 steps)
  Output cadence:    every 1 step(s)
  Output rows:       ~2001
  Progress cadence:  every 100 step(s)
  CPU cores:         256 available, 8 Rayon worker thread(s)
  Strong coupling:   disabled
  Impulse scheme:    enabled
  Hamiltonian step:  disabled
  Hamiltonian midpt: disabled
  Variational step:  disabled
  Energy projection: disabled
  Projection particular metric: Euclidean
  Fluid KE gradient: disabled  (eps = 0.001, scale = 1, linear = 1, angular = 1)
  Fluid KE discrete gradient: disabled
  Impulse pair metric correction: disabled  (mode = pair discrete-gradient, cutoff = all pairs, inner/outer = 0/0, eps = 0.001, linear scale = 1, angular scale = 0)
  Impulse metric correction: disabled  (internal load constraint = disabled)
  Impulse variational defect probe: disabled
  Impulse quadratic pressure: disabled  (scale = 1)
  Added-mass stab:   disabled
  Exact BEM geometry: disabled
  Exact singular BEM: disabled
  Legacy singular SLP diagnostic: disabled
  Phi-dot blend:     0 (off)

  Solver guidance:
    - Strong coupling: use for stiff close-coupled runs; slower but more implicit.
    - Impulse scheme: use when impulse/momentum conservation or KE drift is the focus. Recommended.
    - Added-mass stab: use for higher mesh counts (ndiv > 3) to preserve stability - deprecated.
================================================
Solver starting - good luck!

Initial state:
  Body  1
    density:          10.000000
    shape axes ratio: (1.000000, 0.700000, 0.700000)
    initial KE ratio: 1.500000
    position:         (-4.000000, 0.000000, 0.000000)
    velocity:         (-0.850905, 2.290286, 2.005642)
    angular velocity: (-4.899971, -3.332309, -2.089120)
    orientation:      (w=0.447214, i=0.894427, j=0.000000, k=0.000000)
  Body  2
    density:          10.000000
    shape axes ratio: (1.000000, 0.700000, 0.700000)
    initial KE ratio: 1.500000
    position:         (4.000000, 0.000000, 0.000000)
    velocity:         (-0.807720, 2.174049, 1.903851)
    angular velocity: (5.748459, 1.425861, 2.097752)
    orientation:      (w=0.707107, i=0.000000, j=0.707107, k=0.000000)

Preparing first step: implicit scheme, no bootstrap passes required.
First step may take longer than later steps.

First step completed in 9.337 s.

Step   100/2000    5.0% | t 5.000 | ETA 2m 58s | step 0.08s | KE 1121.2078 | drift +0.03% | fluid 24.8417 | solid 1096.3661
  Impulse FP iterations last/mean/max 6/6.62/8
Step   200/2000   10.0% | t 10.000 | ETA 2m 50s | step 0.10s | KE 1121.3072 | drift +0.04% | fluid 29.1673 | solid 1092.1398
  Impulse FP iterations last/mean/max 7/6.67/8
Step   300/2000   15.0% | t 15.000 | ETA 2m 40s | step 0.09s | KE 1121.6225 | drift +0.06% | fluid 28.3931 | solid 1093.2294
  Impulse FP iterations last/mean/max 6/6.68/8
Step   400/2000   20.0% | t 20.000 | ETA 2m 31s | step 0.08s | KE 1121.9902 | drift +0.10% | fluid 25.1763 | solid 1096.8140
  Impulse FP iterations last/mean/max 6/6.67/8
Step   500/2000   25.0% | t 25.000 | ETA 2m 21s | step 0.10s | KE 1122.0519 | drift +0.10% | fluid 28.9597 | solid 1093.0922
  Impulse FP iterations last/mean/max 7/6.68/8
Step   600/2000   30.0% | t 30.000 | ETA 2m 13s | step 0.09s | KE 1122.2084 | drift +0.12% | fluid 29.1586 | solid 1093.0497
  Impulse FP iterations last/mean/max 6/6.67/8
Step   700/2000   35.0% | t 35.000 | ETA 2m 3s | step 0.09s | KE 1122.4882 | drift +0.14% | fluid 25.1572 | solid 1097.3310
  Impulse FP iterations last/mean/max 6/6.67/8
Step   800/2000   40.0% | t 40.000 | ETA 1m 54s | step 0.08s | KE 1122.5038 | drift +0.14% | fluid 27.5608 | solid 1094.9429
  Impulse FP iterations last/mean/max 6/6.67/8
Step   900/2000   45.0% | t 45.000 | ETA 1m 44s | step 0.09s | KE 1122.4855 | drift +0.14% | fluid 30.2043 | solid 1092.2812
  Impulse FP iterations last/mean/max 7/6.67/8
Step  1000/2000   50.0% | t 50.000 | ETA 1m 34s | step 0.09s | KE 1122.6780 | drift +0.16% | fluid 26.6440 | solid 1096.0340
  Impulse FP iterations last/mean/max 6/6.66/8
Step  1100/2000   55.0% | t 55.000 | ETA 1m 25s | step 0.09s | KE 1122.7455 | drift +0.16% | fluid 25.9405 | solid 1096.8050
  Impulse FP iterations last/mean/max 6/6.66/8
Step  1200/2000   60.0% | t 60.000 | ETA 1m 15s | step 0.09s | KE 1122.6284 | drift +0.15% | fluid 29.7786 | solid 1092.8498
  Impulse FP iterations last/mean/max 7/6.67/8
Step  1300/2000   65.0% | t 65.000 | ETA 1m 6s | step 0.10s | KE 1122.6809 | drift +0.16% | fluid 28.8767 | solid 1093.8042
  Impulse FP iterations last/mean/max 7/6.66/8
Step  1400/2000   70.0% | t 70.000 | ETA 56s | step 0.09s | KE 1122.8354 | drift +0.17% | fluid 25.2197 | solid 1097.6157
  Impulse FP iterations last/mean/max 6/6.66/8
Step  1500/2000   75.0% | t 75.000 | ETA 47s | step 0.09s | KE 1122.7841 | drift +0.17% | fluid 27.1123 | solid 1095.6718
  Impulse FP iterations last/mean/max 6/6.66/8
Step  1600/2000   80.0% | t 80.000 | ETA 37s | step 0.10s | KE 1122.6862 | drift +0.16% | fluid 30.2431 | solid 1092.4431
  Impulse FP iterations last/mean/max 7/6.66/8
Step  1700/2000   85.0% | t 85.000 | ETA 28s | step 0.08s | KE 1122.8009 | drift +0.17% | fluid 27.6891 | solid 1095.1117
  Impulse FP iterations last/mean/max 6/6.66/8
Step  1800/2000   90.0% | t 90.000 | ETA 18s | step 0.09s | KE 1122.9063 | drift +0.18% | fluid 25.2929 | solid 1097.6134
  Impulse FP iterations last/mean/max 6/6.66/8
Step  1900/2000   95.0% | t 95.000 | ETA 9s | step 0.08s | KE 1122.8050 | drift +0.17% | fluid 28.3138 | solid 1094.4912
  Impulse FP iterations last/mean/max 7/6.66/8
Solver finished successfully - good job!
Results saved successfully.

================== Run summary ==================
  Bodies:            2
  Triangles / nodes: 256 / 516
  Timesteps:         2000  (dt = 0.05)
  Simulated time:    0 -> 100
  First-step setup:  9.337 s
  Mean time/step:    0.0937 s  (excl. first step)
  Total wall time:   3m 16s
  Impulse FP iters last/mean/max: 6 / 6.661 / 8
  Approx impulse solves/step:     6.661
  Impulse start cache hits/direct: 1999 / 1
  Impulse global drift P/H:       2.274247e-9 / 2.520123e-2
  Impulse per-body max drift P/H: 7.284175e-9 / 3.257884e-3
  CPU cores:         256 available, 8 Rayon worker thread(s)
  Started:           2026-06-22 19:23:17
  Finished:          2026-06-22 19:26:35
  Output file:       /work/e643/e643/shared/multi_ellip/studies/two_body_paper_sweeps/runs/spheroid_1_0p7_0p7/spheroid_1_0p7_0p7_rho10_E1p5_sep8_run01_impulse_noproj/multiple_body_complete.dat
================================================
