
================ Simulation setup ================
  Run label:         /work/e643/e643/shared/multi_ellip/studies/departing_sphericity_sweep/runs/triaxial/heterogeneous_sphere/triaxial_heterogeneous_sphere_eps0p1_rho1_E0p5_sep8_run08_impulse_noproj/
  Started:           2026-06-24 02:46:58
  Input file:        /work/e643/e643/shared/multi_ellip/studies/departing_sphericity_sweep/runs/triaxial/heterogeneous_sphere/triaxial_heterogeneous_sphere_eps0p1_rho1_E0p5_sep8_run08_impulse_noproj/input.txt
  Output file:       /work/e643/e643/shared/multi_ellip/studies/departing_sphericity_sweep/runs/triaxial/heterogeneous_sphere/triaxial_heterogeneous_sphere_eps0p1_rho1_E0p5_sep8_run08_impulse_noproj/multiple_body_complete.dat
  Bodies:            2
  Fluid density:     1
  Mesh:              ndiv 2 -> 256 triangles / 516 nodes
  Simulated time:    0 -> 100  (dt = 0.05, ~2000 steps)
  Output cadence:    every 1 step(s)
  Output rows:       ~2001
  Progress cadence:  every 100 step(s)
  CPU cores:         256 available, 8 Rayon worker thread(s)
  Strong coupling:   disabled
  Impulse scheme:    enabled
  Hamiltonian step:  disabled
  Hamiltonian midpt: disabled
  Variational step:  disabled
  Energy projection: disabled
  Projection particular metric: Euclidean
  Fluid KE gradient: disabled  (eps = 0.001, scale = 1, linear = 1, angular = 1)
  Fluid KE discrete gradient: disabled
  Impulse pair metric correction: disabled  (mode = pair discrete-gradient, cutoff = all pairs, inner/outer = 0/0, eps = 0.001, linear scale = 1, angular scale = 0)
  Impulse metric correction: disabled  (internal load constraint = disabled)
  Impulse variational defect probe: disabled
  Impulse quadratic pressure: disabled  (scale = 1)
  Added-mass stab:   disabled
  Exact BEM geometry: disabled
  Exact singular BEM: disabled
  Legacy singular SLP diagnostic: disabled
  Phi-dot blend:     0 (off)

  Solver guidance:
    - Strong coupling: use for stiff close-coupled runs; slower but more implicit.
    - Impulse scheme: use when impulse/momentum conservation or KE drift is the focus. Recommended.
    - Added-mass stab: use for higher mesh counts (ndiv > 3) to preserve stability - deprecated.
================================================
Solver starting - good luck!

Initial state:
  Body  1
    density:          1.000000
    shape axes ratio: (1.000000, 0.909091, 0.826446)
    initial KE ratio: 0.500000
    position:         (-4.000000, 0.000000, 0.000000)
    velocity:         (5.336074, 0.151352, 0.984942)
    angular velocity: (5.889798, -1.259155, -1.789755)
    orientation:      (w=-0.489982, i=0.392617, j=-0.248918, k=-0.737434)
  Body  2
    density:          1.000000
    shape axes ratio: (1.000000, 1.000000, 1.000000)
    initial KE ratio: 0.500000
    position:         (4.000000, 0.000000, 0.000000)
    velocity:         (5.524347, 0.156692, 1.019693)
    angular velocity: (-4.009442, -0.413075, 4.819976)
    orientation:      (w=-0.125831, i=0.316340, j=-0.643086, k=0.685956)

Preparing first step: implicit scheme, no bootstrap passes required.
First step may take longer than later steps.

First step completed in 0.278 s.

Step   100/2000    5.0% | t 5.000 | ETA 4m 1s | step 0.13s | KE 263.7562 | drift -0.62% | fluid 69.3737 | solid 194.3825
  Impulse FP iterations last/mean/max 9/8.90/9
Step   200/2000   10.0% | t 10.000 | ETA 3m 50s | step 0.13s | KE 263.3044 | drift -0.79% | fluid 70.9682 | solid 192.3362
  Impulse FP iterations last/mean/max 9/8.94/10
Step   300/2000   15.0% | t 15.000 | ETA 3m 37s | step 0.13s | KE 263.1675 | drift -0.84% | fluid 70.8645 | solid 192.3030
  Impulse FP iterations last/mean/max 9/8.93/10
Step   400/2000   20.0% | t 20.000 | ETA 3m 24s | step 0.12s | KE 262.9099 | drift -0.94% | fluid 69.5668 | solid 193.3431
  Impulse FP iterations last/mean/max 9/8.92/10
Step   500/2000   25.0% | t 25.000 | ETA 3m 11s | step 0.12s | KE 262.9750 | drift -0.92% | fluid 69.3861 | solid 193.5889
  Impulse FP iterations last/mean/max 8/8.91/10
Step   600/2000   30.0% | t 30.000 | ETA 2m 58s | step 0.12s | KE 262.8405 | drift -0.97% | fluid 69.9315 | solid 192.9090
  Impulse FP iterations last/mean/max 9/8.91/10
Step   700/2000   35.0% | t 35.000 | ETA 2m 46s | step 0.13s | KE 262.7608 | drift -1.00% | fluid 71.2507 | solid 191.5101
  Impulse FP iterations last/mean/max 9/8.91/10
Step   800/2000   40.0% | t 40.000 | ETA 2m 33s | step 0.13s | KE 262.7842 | drift -0.99% | fluid 70.5000 | solid 192.2842
  Impulse FP iterations last/mean/max 9/8.90/10
Step   900/2000   45.0% | t 45.000 | ETA 2m 20s | step 0.13s | KE 262.7920 | drift -0.98% | fluid 69.4982 | solid 193.2938
  Impulse FP iterations last/mean/max 9/8.90/10
Step  1000/2000   50.0% | t 50.000 | ETA 2m 7s | step 0.13s | KE 262.7710 | drift -0.99% | fluid 68.9133 | solid 193.8576
  Impulse FP iterations last/mean/max 9/8.90/10
Step  1100/2000   55.0% | t 55.000 | ETA 1m 54s | step 0.12s | KE 262.7815 | drift -0.99% | fluid 70.2714 | solid 192.5101
  Impulse FP iterations last/mean/max 8/8.90/10
Step  1200/2000   60.0% | t 60.000 | ETA 1m 42s | step 0.12s | KE 262.6816 | drift -1.03% | fluid 71.2980 | solid 191.3836
  Impulse FP iterations last/mean/max 8/8.90/10
Step  1300/2000   65.0% | t 65.000 | ETA 1m 29s | step 0.12s | KE 262.7793 | drift -0.99% | fluid 70.1580 | solid 192.6213
  Impulse FP iterations last/mean/max 9/8.91/10
Step  1400/2000   70.0% | t 70.000 | ETA 1m 16s | step 0.13s | KE 262.7644 | drift -0.99% | fluid 69.8818 | solid 192.8826
  Impulse FP iterations last/mean/max 9/8.91/10
Step  1500/2000   75.0% | t 75.000 | ETA 1m 3s | step 0.13s | KE 262.7716 | drift -0.99% | fluid 69.0487 | solid 193.7229
  Impulse FP iterations last/mean/max 9/8.91/10
Step  1600/2000   80.0% | t 80.000 | ETA 51s | step 0.13s | KE 262.7182 | drift -1.01% | fluid 70.6621 | solid 192.0561
  Impulse FP iterations last/mean/max 9/8.91/10
Step  1700/2000   85.0% | t 85.000 | ETA 38s | step 0.13s | KE 262.6818 | drift -1.03% | fluid 71.1901 | solid 191.4917
  Impulse FP iterations last/mean/max 9/8.91/10
Step  1800/2000   90.0% | t 90.000 | ETA 25s | step 0.10s | KE 262.7701 | drift -0.99% | fluid 69.8468 | solid 192.9232
  Impulse FP iterations last/mean/max 8/8.90/10
Step  1900/2000   95.0% | t 95.000 | ETA 12s | step 0.10s | KE 262.7572 | drift -1.00% | fluid 69.8790 | solid 192.8782
  Impulse FP iterations last/mean/max 8/8.91/10
Solver finished successfully - good job!
Results saved successfully.

================== Run summary ==================
  Bodies:            2
  Triangles / nodes: 256 / 516
  Timesteps:         2000  (dt = 0.05)
  Simulated time:    0 -> 100
  First-step setup:  0.278 s
  Mean time/step:    0.1247 s  (excl. first step)
  Total wall time:   4m 9s
  Impulse FP iters last/mean/max: 9 / 8.907 / 10
  Approx impulse solves/step:     8.908
  Impulse start cache hits/direct: 1999 / 1
  Impulse global drift P/H:       7.129493e-9 / 1.495180e-2
  Impulse per-body max drift P/H: 1.361065e-8 / 6.079254e-3
  CPU cores:         256 available, 8 Rayon worker thread(s)
  Started:           2026-06-24 02:46:58
  Finished:          2026-06-24 02:51:08
  Output file:       /work/e643/e643/shared/multi_ellip/studies/departing_sphericity_sweep/runs/triaxial/heterogeneous_sphere/triaxial_heterogeneous_sphere_eps0p1_rho1_E0p5_sep8_run08_impulse_noproj/multiple_body_complete.dat
================================================
