
================ Simulation setup ================
  Run label:         /work/e643/e643/shared/multi_ellip/studies/departing_sphericity_sweep/runs/triaxial/homogeneous/triaxial_homogeneous_eps0p1_rho1_E0p5_sep8_run08_impulse_noproj/
  Started:           2026-06-24 02:30:21
  Input file:        /work/e643/e643/shared/multi_ellip/studies/departing_sphericity_sweep/runs/triaxial/homogeneous/triaxial_homogeneous_eps0p1_rho1_E0p5_sep8_run08_impulse_noproj/input.txt
  Output file:       /work/e643/e643/shared/multi_ellip/studies/departing_sphericity_sweep/runs/triaxial/homogeneous/triaxial_homogeneous_eps0p1_rho1_E0p5_sep8_run08_impulse_noproj/multiple_body_complete.dat
  Bodies:            2
  Fluid density:     1
  Mesh:              ndiv 2 -> 256 triangles / 516 nodes
  Simulated time:    0 -> 100  (dt = 0.05, ~2000 steps)
  Output cadence:    every 1 step(s)
  Output rows:       ~2001
  Progress cadence:  every 100 step(s)
  CPU cores:         256 available, 8 Rayon worker thread(s)
  Strong coupling:   disabled
  Impulse scheme:    enabled
  Hamiltonian step:  disabled
  Hamiltonian midpt: disabled
  Variational step:  disabled
  Energy projection: disabled
  Projection particular metric: Euclidean
  Fluid KE gradient: disabled  (eps = 0.001, scale = 1, linear = 1, angular = 1)
  Fluid KE discrete gradient: disabled
  Impulse pair metric correction: disabled  (mode = pair discrete-gradient, cutoff = all pairs, inner/outer = 0/0, eps = 0.001, linear scale = 1, angular scale = 0)
  Impulse metric correction: disabled  (internal load constraint = disabled)
  Impulse variational defect probe: disabled
  Impulse quadratic pressure: disabled  (scale = 1)
  Added-mass stab:   disabled
  Exact BEM geometry: disabled
  Exact singular BEM: disabled
  Legacy singular SLP diagnostic: disabled
  Phi-dot blend:     0 (off)

  Solver guidance:
    - Strong coupling: use for stiff close-coupled runs; slower but more implicit.
    - Impulse scheme: use when impulse/momentum conservation or KE drift is the focus. Recommended.
    - Added-mass stab: use for higher mesh counts (ndiv > 3) to preserve stability - deprecated.
================================================
Solver starting - good luck!

Initial state:
  Body  1
    density:          1.000000
    shape axes ratio: (1.000000, 0.909091, 0.826446)
    initial KE ratio: 0.500000
    position:         (-4.000000, 0.000000, 0.000000)
    velocity:         (0.152319, -3.050906, 4.460418)
    angular velocity: (5.995992, 1.501766, -1.127472)
    orientation:      (w=-0.326930, i=-0.395056, j=0.537547, k=-0.669396)
  Body  2
    density:          1.000000
    shape axes ratio: (1.000000, 0.909091, 0.826446)
    initial KE ratio: 0.500000
    position:         (4.000000, 0.000000, 0.000000)
    velocity:         (0.161253, -3.229844, 4.722026)
    angular velocity: (-2.752860, -3.758805, -4.215633)
    orientation:      (w=0.689213, i=0.375623, j=-0.109366, k=0.609863)

Preparing first step: implicit scheme, no bootstrap passes required.
First step may take longer than later steps.

First step completed in 0.257 s.

Step   100/2000    5.0% | t 5.000 | ETA 3m 36s | step 0.10s | KE 271.4680 | drift +0.18% | fluid 78.6089 | solid 192.8592
  Impulse FP iterations last/mean/max 9/9.00/9
Step   200/2000   10.0% | t 10.000 | ETA 3m 28s | step 0.12s | KE 276.5305 | drift +2.05% | fluid 76.0824 | solid 200.4481
  Impulse FP iterations last/mean/max 9/9.00/9
Step   300/2000   15.0% | t 15.000 | ETA 3m 22s | step 0.13s | KE 277.9096 | drift +2.56% | fluid 75.8253 | solid 202.0843
  Impulse FP iterations last/mean/max 9/9.00/9
Step   400/2000   20.0% | t 20.000 | ETA 3m 15s | step 0.13s | KE 279.1678 | drift +3.02% | fluid 76.5688 | solid 202.5990
  Impulse FP iterations last/mean/max 9/8.99/9
Step   500/2000   25.0% | t 25.000 | ETA 3m 5s | step 0.13s | KE 280.7440 | drift +3.61% | fluid 76.4970 | solid 204.2470
  Impulse FP iterations last/mean/max 9/9.00/10
Step   600/2000   30.0% | t 30.000 | ETA 2m 54s | step 0.12s | KE 281.8352 | drift +4.01% | fluid 76.1166 | solid 205.7186
  Impulse FP iterations last/mean/max 9/9.02/10
Step   700/2000   35.0% | t 35.000 | ETA 2m 42s | step 0.13s | KE 282.5142 | drift +4.26% | fluid 77.0199 | solid 205.4944
  Impulse FP iterations last/mean/max 9/9.02/10
Step   800/2000   40.0% | t 40.000 | ETA 2m 30s | step 0.14s | KE 282.8645 | drift +4.39% | fluid 73.3475 | solid 209.5171
  Impulse FP iterations last/mean/max 9/9.01/10
Step   900/2000   45.0% | t 45.000 | ETA 2m 18s | step 0.14s | KE 282.1726 | drift +4.13% | fluid 77.4105 | solid 204.7621
  Impulse FP iterations last/mean/max 9/9.01/10
Step  1000/2000   50.0% | t 50.000 | ETA 2m 6s | step 0.12s | KE 281.8728 | drift +4.02% | fluid 75.8459 | solid 206.0269
  Impulse FP iterations last/mean/max 9/9.01/10
Step  1100/2000   55.0% | t 55.000 | ETA 1m 53s | step 0.12s | KE 281.6640 | drift +3.94% | fluid 76.7199 | solid 204.9442
  Impulse FP iterations last/mean/max 9/9.02/10
Step  1200/2000   60.0% | t 60.000 | ETA 1m 41s | step 0.13s | KE 281.8006 | drift +4.00% | fluid 73.6651 | solid 208.1355
  Impulse FP iterations last/mean/max 9/9.02/10
Step  1300/2000   65.0% | t 65.000 | ETA 1m 28s | step 0.12s | KE 281.7237 | drift +3.97% | fluid 75.3706 | solid 206.3531
  Impulse FP iterations last/mean/max 9/9.02/10
Step  1400/2000   70.0% | t 70.000 | ETA 1m 16s | step 0.13s | KE 281.7510 | drift +3.98% | fluid 75.0105 | solid 206.7405
  Impulse FP iterations last/mean/max 9/9.02/10
Step  1500/2000   75.0% | t 75.000 | ETA 1m 3s | step 0.13s | KE 281.6306 | drift +3.93% | fluid 77.9677 | solid 203.6628
  Impulse FP iterations last/mean/max 9/9.02/10
Step  1600/2000   80.0% | t 80.000 | ETA 51s | step 0.13s | KE 281.6586 | drift +3.94% | fluid 75.9710 | solid 205.6875
  Impulse FP iterations last/mean/max 9/9.02/10
Step  1700/2000   85.0% | t 85.000 | ETA 38s | step 0.13s | KE 281.7561 | drift +3.98% | fluid 75.1822 | solid 206.5739
  Impulse FP iterations last/mean/max 9/9.02/10
Step  1800/2000   90.0% | t 90.000 | ETA 25s | step 0.12s | KE 281.7971 | drift +3.99% | fluid 74.4725 | solid 207.3246
  Impulse FP iterations last/mean/max 9/9.02/10
Step  1900/2000   95.0% | t 95.000 | ETA 12s | step 0.10s | KE 281.9353 | drift +4.04% | fluid 75.3884 | solid 206.5469
  Impulse FP iterations last/mean/max 9/9.02/10
Solver finished successfully - good job!
Results saved successfully.

================== Run summary ==================
  Bodies:            2
  Triangles / nodes: 256 / 516
  Timesteps:         2000  (dt = 0.05)
  Simulated time:    0 -> 100
  First-step setup:  0.257 s
  Mean time/step:    0.1255 s  (excl. first step)
  Total wall time:   4m 11s
  Impulse FP iters last/mean/max: 9 / 9.018 / 10
  Approx impulse solves/step:     9.018
  Impulse start cache hits/direct: 1999 / 1
  Impulse global drift P/H:       2.018517e-8 / 1.115482e-2
  Impulse per-body max drift P/H: 2.559536e-8 / 1.723980e-3
  CPU cores:         256 available, 8 Rayon worker thread(s)
  Started:           2026-06-24 02:30:21
  Finished:          2026-06-24 02:34:32
  Output file:       /work/e643/e643/shared/multi_ellip/studies/departing_sphericity_sweep/runs/triaxial/homogeneous/triaxial_homogeneous_eps0p1_rho1_E0p5_sep8_run08_impulse_noproj/multiple_body_complete.dat
================================================
