
================ Simulation setup ================
  Run label:         /work/e643/e643/shared/multi_ellip/studies/departing_sphericity_sweep/runs/triaxial/heterogeneous_sphere/triaxial_heterogeneous_sphere_eps0p3_rho1_E0p5_sep8_run09_impulse_noproj/
  Started:           2026-06-24 02:46:59
  Input file:        /work/e643/e643/shared/multi_ellip/studies/departing_sphericity_sweep/runs/triaxial/heterogeneous_sphere/triaxial_heterogeneous_sphere_eps0p3_rho1_E0p5_sep8_run09_impulse_noproj/input.txt
  Output file:       /work/e643/e643/shared/multi_ellip/studies/departing_sphericity_sweep/runs/triaxial/heterogeneous_sphere/triaxial_heterogeneous_sphere_eps0p3_rho1_E0p5_sep8_run09_impulse_noproj/multiple_body_complete.dat
  Bodies:            2
  Fluid density:     1
  Mesh:              ndiv 2 -> 256 triangles / 516 nodes
  Simulated time:    0 -> 100  (dt = 0.05, ~2000 steps)
  Output cadence:    every 1 step(s)
  Output rows:       ~2001
  Progress cadence:  every 100 step(s)
  CPU cores:         256 available, 8 Rayon worker thread(s)
  Strong coupling:   disabled
  Impulse scheme:    enabled
  Hamiltonian step:  disabled
  Hamiltonian midpt: disabled
  Variational step:  disabled
  Energy projection: disabled
  Projection particular metric: Euclidean
  Fluid KE gradient: disabled  (eps = 0.001, scale = 1, linear = 1, angular = 1)
  Fluid KE discrete gradient: disabled
  Impulse pair metric correction: disabled  (mode = pair discrete-gradient, cutoff = all pairs, inner/outer = 0/0, eps = 0.001, linear scale = 1, angular scale = 0)
  Impulse metric correction: disabled  (internal load constraint = disabled)
  Impulse variational defect probe: disabled
  Impulse quadratic pressure: disabled  (scale = 1)
  Added-mass stab:   disabled
  Exact BEM geometry: disabled
  Exact singular BEM: disabled
  Legacy singular SLP diagnostic: disabled
  Phi-dot blend:     0 (off)

  Solver guidance:
    - Strong coupling: use for stiff close-coupled runs; slower but more implicit.
    - Impulse scheme: use when impulse/momentum conservation or KE drift is the focus. Recommended.
    - Added-mass stab: use for higher mesh counts (ndiv > 3) to preserve stability - deprecated.
================================================
Solver starting - good luck!

Initial state:
  Body  1
    density:          1.000000
    shape axes ratio: (1.000000, 0.769231, 0.591716)
    initial KE ratio: 0.500000
    position:         (-4.000000, 0.000000, 0.000000)
    velocity:         (-3.312906, 4.652416, 3.066118)
    angular velocity: (-0.299378, -1.599843, 6.068714)
    orientation:      (w=-0.591454, i=-0.035372, j=-0.463163, k=0.659099)
  Body  2
    density:          1.000000
    shape axes ratio: (1.000000, 1.000000, 1.000000)
    initial KE ratio: 0.500000
    position:         (4.000000, 0.000000, 0.000000)
    velocity:         (-2.872095, 4.033371, 2.658144)
    angular velocity: (0.396548, -4.806583, 4.027149)
    orientation:      (w=-0.594872, i=-0.491996, j=-0.527187, k=0.355164)

Preparing first step: implicit scheme, no bootstrap passes required.
First step may take longer than later steps.

First step completed in 0.349 s.

Step   100/2000    5.0% | t 5.000 | ETA 4m 38s | step 0.14s | KE 323.3271 | drift +3.74% | fluid 82.8247 | solid 240.5024
  Impulse FP iterations last/mean/max 10/10.03/11
Step   200/2000   10.0% | t 10.000 | ETA 4m 22s | step 0.15s | KE 326.6284 | drift +4.80% | fluid 82.4257 | solid 244.2026
  Impulse FP iterations last/mean/max 10/10.02/11
Step   300/2000   15.0% | t 15.000 | ETA 4m 7s | step 0.15s | KE 326.5908 | drift +4.79% | fluid 93.0497 | solid 233.5410
  Impulse FP iterations last/mean/max 10/10.03/11
Step   400/2000   20.0% | t 20.000 | ETA 3m 52s | step 0.13s | KE 327.1461 | drift +4.97% | fluid 89.6371 | solid 237.5090
  Impulse FP iterations last/mean/max 10/10.03/11
Step   500/2000   25.0% | t 25.000 | ETA 3m 37s | step 0.15s | KE 328.3885 | drift +5.37% | fluid 77.2866 | solid 251.1019
  Impulse FP iterations last/mean/max 10/10.02/11
Step   600/2000   30.0% | t 30.000 | ETA 3m 23s | step 0.14s | KE 327.3900 | drift +5.05% | fluid 92.2178 | solid 235.1722
  Impulse FP iterations last/mean/max 10/10.02/11
Step   700/2000   35.0% | t 35.000 | ETA 3m 8s | step 0.13s | KE 328.6523 | drift +5.45% | fluid 78.3511 | solid 250.3012
  Impulse FP iterations last/mean/max 10/10.02/11
Step   800/2000   40.0% | t 40.000 | ETA 2m 54s | step 0.15s | KE 327.8988 | drift +5.21% | fluid 88.6201 | solid 239.2787
  Impulse FP iterations last/mean/max 10/10.01/11
Step   900/2000   45.0% | t 45.000 | ETA 2m 39s | step 0.14s | KE 327.4357 | drift +5.06% | fluid 94.4792 | solid 232.9565
  Impulse FP iterations last/mean/max 10/10.02/11
Step  1000/2000   50.0% | t 50.000 | ETA 2m 25s | step 0.14s | KE 328.8511 | drift +5.51% | fluid 81.1304 | solid 247.7207
  Impulse FP iterations last/mean/max 10/10.02/11
Step  1100/2000   55.0% | t 55.000 | ETA 2m 9s | step 0.13s | KE 328.0618 | drift +5.26% | fluid 87.1233 | solid 240.9385
  Impulse FP iterations last/mean/max 10/10.02/11
Step  1200/2000   60.0% | t 60.000 | ETA 1m 53s | step 0.12s | KE 328.7174 | drift +5.47% | fluid 80.3459 | solid 248.3715
  Impulse FP iterations last/mean/max 10/10.02/11
Step  1300/2000   65.0% | t 65.000 | ETA 1m 38s | step 0.14s | KE 328.0553 | drift +5.26% | fluid 89.1332 | solid 238.9221
  Impulse FP iterations last/mean/max 11/10.02/11
Step  1400/2000   70.0% | t 70.000 | ETA 1m 24s | step 0.13s | KE 327.9422 | drift +5.22% | fluid 91.3108 | solid 236.6314
  Impulse FP iterations last/mean/max 10/10.02/11
Step  1500/2000   75.0% | t 75.000 | ETA 1m 9s | step 0.14s | KE 328.9422 | drift +5.54% | fluid 80.7108 | solid 248.2314
  Impulse FP iterations last/mean/max 10/10.03/11
Step  1600/2000   80.0% | t 80.000 | ETA 55s | step 0.13s | KE 328.4543 | drift +5.39% | fluid 84.9743 | solid 243.4801
  Impulse FP iterations last/mean/max 10/10.03/11
Step  1700/2000   85.0% | t 85.000 | ETA 41s | step 0.13s | KE 328.6143 | drift +5.44% | fluid 82.6543 | solid 245.9599
  Impulse FP iterations last/mean/max 11/10.03/11
Step  1800/2000   90.0% | t 90.000 | ETA 27s | step 0.12s | KE 328.5477 | drift +5.42% | fluid 81.3539 | solid 247.1939
  Impulse FP iterations last/mean/max 10/10.03/11
Step  1900/2000   95.0% | t 95.000 | ETA 13s | step 0.09s | KE 328.1799 | drift +5.30% | fluid 89.6005 | solid 238.5794
  Impulse FP iterations last/mean/max 9/10.02/11
Solver finished successfully - good job!
Results saved successfully.

================== Run summary ==================
  Bodies:            2
  Triangles / nodes: 256 / 516
  Timesteps:         2000  (dt = 0.05)
  Simulated time:    0 -> 100
  First-step setup:  0.349 s
  Mean time/step:    0.1343 s  (excl. first step)
  Total wall time:   4m 28s
  Impulse FP iters last/mean/max: 10 / 10.024 / 11
  Approx impulse solves/step:     10.024
  Impulse start cache hits/direct: 1999 / 1
  Impulse global drift P/H:       5.160383e-9 / 2.633453e-2
  Impulse per-body max drift P/H: 1.030616e-8 / 4.813146e-3
  CPU cores:         256 available, 8 Rayon worker thread(s)
  Started:           2026-06-24 02:46:59
  Finished:          2026-06-24 02:51:28
  Output file:       /work/e643/e643/shared/multi_ellip/studies/departing_sphericity_sweep/runs/triaxial/heterogeneous_sphere/triaxial_heterogeneous_sphere_eps0p3_rho1_E0p5_sep8_run09_impulse_noproj/multiple_body_complete.dat
================================================
