
================ Simulation setup ================
  Run label:         /work/e643/e643/shared/multi_ellip/studies/departing_sphericity_sweep/runs/spheroid_oblate/homogeneous/spheroid_oblate_homogeneous_eps0p01_rho1_E0p5_sep8_run10_impulse_noproj/
  Started:           2026-06-24 02:26:26
  Input file:        /work/e643/e643/shared/multi_ellip/studies/departing_sphericity_sweep/runs/spheroid_oblate/homogeneous/spheroid_oblate_homogeneous_eps0p01_rho1_E0p5_sep8_run10_impulse_noproj/input.txt
  Output file:       /work/e643/e643/shared/multi_ellip/studies/departing_sphericity_sweep/runs/spheroid_oblate/homogeneous/spheroid_oblate_homogeneous_eps0p01_rho1_E0p5_sep8_run10_impulse_noproj/multiple_body_complete.dat
  Bodies:            2
  Fluid density:     1
  Mesh:              ndiv 2 -> 256 triangles / 516 nodes
  Simulated time:    0 -> 100  (dt = 0.05, ~2000 steps)
  Output cadence:    every 1 step(s)
  Output rows:       ~2001
  Progress cadence:  every 100 step(s)
  CPU cores:         256 available, 8 Rayon worker thread(s)
  Strong coupling:   disabled
  Impulse scheme:    enabled
  Hamiltonian step:  disabled
  Hamiltonian midpt: disabled
  Variational step:  disabled
  Energy projection: disabled
  Projection particular metric: Euclidean
  Fluid KE gradient: disabled  (eps = 0.001, scale = 1, linear = 1, angular = 1)
  Fluid KE discrete gradient: disabled
  Impulse pair metric correction: disabled  (mode = pair discrete-gradient, cutoff = all pairs, inner/outer = 0/0, eps = 0.001, linear scale = 1, angular scale = 0)
  Impulse metric correction: disabled  (internal load constraint = disabled)
  Impulse variational defect probe: disabled
  Impulse quadratic pressure: disabled  (scale = 1)
  Added-mass stab:   disabled
  Exact BEM geometry: disabled
  Exact singular BEM: disabled
  Legacy singular SLP diagnostic: disabled
  Phi-dot blend:     0 (off)

  Solver guidance:
    - Strong coupling: use for stiff close-coupled runs; slower but more implicit.
    - Impulse scheme: use when impulse/momentum conservation or KE drift is the focus. Recommended.
    - Added-mass stab: use for higher mesh counts (ndiv > 3) to preserve stability - deprecated.
================================================
Solver starting - good luck!

Initial state:
  Body  1
    density:          1.000000
    shape axes ratio: (1.000000, 1.000000, 0.970590)
    initial KE ratio: 0.500000
    position:         (-4.000000, 0.000000, 0.000000)
    velocity:         (3.730691, -3.707626, 2.083847)
    angular velocity: (2.536909, 1.571351, 5.529319)
    orientation:      (w=-0.816315, i=0.299958, j=0.485109, k=-0.091239)
  Body  2
    density:          1.000000
    shape axes ratio: (1.000000, 1.000000, 0.970590)
    initial KE ratio: 0.500000
    position:         (4.000000, 0.000000, 0.000000)
    velocity:         (3.697715, -3.674854, 2.065427)
    angular velocity: (-5.720713, -0.000431, 2.598434)
    orientation:      (w=0.424802, i=-0.085158, j=0.838529, k=-0.330393)

Preparing first step: implicit scheme, no bootstrap passes required.
First step may take longer than later steps.

First step completed in 0.295 s.

Step   100/2000    5.0% | t 5.000 | ETA 3m 21s | step 0.10s | KE 285.1875 | drift +4.71% | fluid 73.5014 | solid 211.6861
  Impulse FP iterations last/mean/max 8/7.79/8
Step   200/2000   10.0% | t 10.000 | ETA 3m 10s | step 0.11s | KE 296.8388 | drift +8.99% | fluid 73.1737 | solid 223.6651
  Impulse FP iterations last/mean/max 8/7.76/8
Step   300/2000   15.0% | t 15.000 | ETA 2m 58s | step 0.11s | KE 306.5093 | drift +12.54% | fluid 73.3628 | solid 233.1465
  Impulse FP iterations last/mean/max 8/7.75/8
Step   400/2000   20.0% | t 20.000 | ETA 2m 48s | step 0.11s | KE 315.1615 | drift +15.71% | fluid 73.1515 | solid 242.0100
  Impulse FP iterations last/mean/max 8/7.76/8
Step   500/2000   25.0% | t 25.000 | ETA 2m 38s | step 0.11s | KE 327.9609 | drift +20.41% | fluid 73.2830 | solid 254.6779
  Impulse FP iterations last/mean/max 8/7.79/8
Step   600/2000   30.0% | t 30.000 | ETA 2m 25s | step 0.09s | KE 351.8936 | drift +29.20% | fluid 73.6808 | solid 278.2128
  Impulse FP iterations last/mean/max 7/7.81/8
Step   700/2000   35.0% | t 35.000 | ETA 2m 12s | step 0.08s | KE 383.2380 | drift +40.71% | fluid 72.9878 | solid 310.2502
  Impulse FP iterations last/mean/max 8/7.83/8
Step   800/2000   40.0% | t 40.000 | ETA 2m 1s | step 0.10s | KE 417.2604 | drift +53.20% | fluid 73.2700 | solid 343.9904
  Impulse FP iterations last/mean/max 8/7.83/8
Step   900/2000   45.0% | t 45.000 | ETA 1m 51s | step 0.08s | KE 453.7499 | drift +66.60% | fluid 73.4343 | solid 380.3156
  Impulse FP iterations last/mean/max 7/7.83/8
Step  1000/2000   50.0% | t 50.000 | ETA 1m 41s | step 0.11s | KE 493.1282 | drift +81.06% | fluid 73.2790 | solid 419.8492
  Impulse FP iterations last/mean/max 8/7.84/8
Step  1100/2000   55.0% | t 55.000 | ETA 1m 32s | step 0.11s | KE 536.1313 | drift +96.84% | fluid 73.2885 | solid 462.8428
  Impulse FP iterations last/mean/max 8/7.85/8
Step  1200/2000   60.0% | t 60.000 | ETA 1m 22s | step 0.10s | KE 583.8759 | drift +114.37% | fluid 73.4485 | solid 510.4273
  Impulse FP iterations last/mean/max 8/7.86/8
Step  1300/2000   65.0% | t 65.000 | ETA 1m 12s | step 0.11s | KE 639.1479 | drift +134.67% | fluid 73.4185 | solid 565.7295
  Impulse FP iterations last/mean/max 8/7.86/8
Step  1400/2000   70.0% | t 70.000 | ETA 1m 2s | step 0.10s | KE 704.3459 | drift +158.61% | fluid 73.1113 | solid 631.2346
  Impulse FP iterations last/mean/max 8/7.87/8
Step  1500/2000   75.0% | t 75.000 | ETA 51s | step 0.11s | KE 780.5124 | drift +186.57% | fluid 73.4229 | solid 707.0895
  Impulse FP iterations last/mean/max 8/7.88/8
Step  1600/2000   80.0% | t 80.000 | ETA 41s | step 0.11s | KE 874.4814 | drift +221.07% | fluid 73.3200 | solid 801.1614
  Impulse FP iterations last/mean/max 8/7.89/8
Step  1700/2000   85.0% | t 85.000 | ETA 31s | step 0.11s | KE 989.9242 | drift +263.46% | fluid 73.2626 | solid 916.6616
  Impulse FP iterations last/mean/max 8/7.89/8
Step  1800/2000   90.0% | t 90.000 | ETA 20s | step 0.11s | KE 1133.2032 | drift +316.06% | fluid 74.3708 | solid 1058.8324
  Impulse FP iterations last/mean/max 8/7.90/8
Step  1900/2000   95.0% | t 95.000 | ETA 10s | step 0.09s | KE 1324.1386 | drift +386.17% | fluid 73.9801 | solid 1250.1585
  Impulse FP iterations last/mean/max 8/7.91/8
Solver finished successfully - good job!
Results saved successfully.

================== Run summary ==================
  Bodies:            2
  Triangles / nodes: 256 / 516
  Timesteps:         2000  (dt = 0.05)
  Simulated time:    0 -> 100
  First-step setup:  0.295 s
  Mean time/step:    0.1038 s  (excl. first step)
  Total wall time:   3m 27s
  Impulse FP iters last/mean/max: 8 / 7.910 / 8
  Approx impulse solves/step:     7.911
  Impulse start cache hits/direct: 1999 / 1
  Impulse global drift P/H:       2.922943e-8 / 3.436994e-1
  Impulse per-body max drift P/H: 5.487674e-8 / 4.620383e-2
  CPU cores:         256 available, 8 Rayon worker thread(s)
  Started:           2026-06-24 02:26:26
  Finished:          2026-06-24 02:29:54
  Output file:       /work/e643/e643/shared/multi_ellip/studies/departing_sphericity_sweep/runs/spheroid_oblate/homogeneous/spheroid_oblate_homogeneous_eps0p01_rho1_E0p5_sep8_run10_impulse_noproj/multiple_body_complete.dat
================================================
