
================ Simulation setup ================
  Run label:         /work/e643/e643/shared/multi_ellip/studies/two_body_paper_sweeps/runs/spheroid_1_0p7_0p7/spheroid_1_0p7_0p7_rho0p3_E11_sep11_run02_impulse_noproj/
  Started:           2026-06-22 19:46:16
  Input file:        /work/e643/e643/shared/multi_ellip/studies/two_body_paper_sweeps/runs/spheroid_1_0p7_0p7/spheroid_1_0p7_0p7_rho0p3_E11_sep11_run02_impulse_noproj/input.txt
  Output file:       /work/e643/e643/shared/multi_ellip/studies/two_body_paper_sweeps/runs/spheroid_1_0p7_0p7/spheroid_1_0p7_0p7_rho0p3_E11_sep11_run02_impulse_noproj/multiple_body_complete.dat
  Bodies:            2
  Fluid density:     1
  Mesh:              ndiv 2 -> 256 triangles / 516 nodes
  Simulated time:    0 -> 100  (dt = 0.05, ~2000 steps)
  Output cadence:    every 1 step(s)
  Output rows:       ~2001
  Progress cadence:  every 100 step(s)
  CPU cores:         256 available, 8 Rayon worker thread(s)
  Strong coupling:   disabled
  Impulse scheme:    enabled
  Hamiltonian step:  disabled
  Hamiltonian midpt: disabled
  Variational step:  disabled
  Energy projection: disabled
  Projection particular metric: Euclidean
  Fluid KE gradient: disabled  (eps = 0.001, scale = 1, linear = 1, angular = 1)
  Fluid KE discrete gradient: disabled
  Impulse pair metric correction: disabled  (mode = pair discrete-gradient, cutoff = all pairs, inner/outer = 0/0, eps = 0.001, linear scale = 1, angular scale = 0)
  Impulse metric correction: disabled  (internal load constraint = disabled)
  Impulse variational defect probe: disabled
  Impulse quadratic pressure: disabled  (scale = 1)
  Added-mass stab:   disabled
  Exact BEM geometry: disabled
  Exact singular BEM: disabled
  Legacy singular SLP diagnostic: disabled
  Phi-dot blend:     0 (off)

  Solver guidance:
    - Strong coupling: use for stiff close-coupled runs; slower but more implicit.
    - Impulse scheme: use when impulse/momentum conservation or KE drift is the focus. Recommended.
    - Added-mass stab: use for higher mesh counts (ndiv > 3) to preserve stability - deprecated.
================================================
Solver starting - good luck!

Initial state:
  Body  1
    density:          0.300000
    shape axes ratio: (1.000000, 0.700000, 0.700000)
    initial KE ratio: 11.000000
    position:         (-5.500000, 0.000000, 0.000000)
    velocity:         (0.874103, 0.668587, -0.210727)
    angular velocity: (-5.584545, 1.050280, -2.681079)
    orientation:      (w=0.577350, i=0.577350, j=0.577350, k=0.000000)
  Body  2
    density:          0.300000
    shape axes ratio: (1.000000, 0.700000, 0.700000)
    initial KE ratio: 11.000000
    position:         (5.500000, 0.000000, 0.000000)
    velocity:         (1.023304, 0.782708, -0.246696)
    angular velocity: (-0.087849, -4.537951, -4.344848)
    orientation:      (w=0.577350, i=-0.577350, j=0.000000, k=0.577350)

Preparing first step: implicit scheme, no bootstrap passes required.
First step may take longer than later steps.

First step completed in 0.336 s.

Step   100/2000    5.0% | t 5.000 | ETA 4m 10s | step 0.14s | KE 35.1788 | drift +0.37% | fluid 9.4655 | solid 25.7133
  Impulse FP iterations last/mean/max 10/10.52/11
Step   200/2000   10.0% | t 10.000 | ETA 4m 11s | step 0.14s | KE 35.2461 | drift +0.56% | fluid 9.4810 | solid 25.7652
  Impulse FP iterations last/mean/max 10/10.52/11
Step   300/2000   15.0% | t 15.000 | ETA 4m 3s | step 0.14s | KE 35.2751 | drift +0.64% | fluid 9.4880 | solid 25.7871
  Impulse FP iterations last/mean/max 10/10.50/11
Step   400/2000   20.0% | t 20.000 | ETA 3m 50s | step 0.15s | KE 35.2789 | drift +0.65% | fluid 9.4875 | solid 25.7914
  Impulse FP iterations last/mean/max 10/10.46/11
Step   500/2000   25.0% | t 25.000 | ETA 3m 37s | step 0.14s | KE 35.2668 | drift +0.62% | fluid 9.4811 | solid 25.7857
  Impulse FP iterations last/mean/max 10/10.40/11
Step   600/2000   30.0% | t 30.000 | ETA 3m 22s | step 0.15s | KE 35.2517 | drift +0.58% | fluid 9.4743 | solid 25.7774
  Impulse FP iterations last/mean/max 10/10.35/11
Step   700/2000   35.0% | t 35.000 | ETA 3m 8s | step 0.14s | KE 35.2464 | drift +0.56% | fluid 9.4738 | solid 25.7726
  Impulse FP iterations last/mean/max 10/10.33/11
Step   800/2000   40.0% | t 40.000 | ETA 2m 54s | step 0.15s | KE 35.2535 | drift +0.58% | fluid 9.4804 | solid 25.7731
  Impulse FP iterations last/mean/max 10/10.32/11
Step   900/2000   45.0% | t 45.000 | ETA 2m 39s | step 0.14s | KE 35.2639 | drift +0.61% | fluid 9.4883 | solid 25.7756
  Impulse FP iterations last/mean/max 10/10.31/11
Step  1000/2000   50.0% | t 50.000 | ETA 2m 25s | step 0.14s | KE 35.2663 | drift +0.62% | fluid 9.4904 | solid 25.7760
  Impulse FP iterations last/mean/max 11/10.31/11
Step  1100/2000   55.0% | t 55.000 | ETA 2m 10s | step 0.16s | KE 35.2567 | drift +0.59% | fluid 9.4841 | solid 25.7726
  Impulse FP iterations last/mean/max 11/10.32/11
Step  1200/2000   60.0% | t 60.000 | ETA 1m 56s | step 0.15s | KE 35.2391 | drift +0.54% | fluid 9.4726 | solid 25.7664
  Impulse FP iterations last/mean/max 11/10.33/11
Step  1300/2000   65.0% | t 65.000 | ETA 1m 42s | step 0.15s | KE 35.2235 | drift +0.49% | fluid 9.4627 | solid 25.7608
  Impulse FP iterations last/mean/max 11/10.35/11
Step  1400/2000   70.0% | t 70.000 | ETA 1m 27s | step 0.15s | KE 35.2203 | drift +0.49% | fluid 9.4610 | solid 25.7593
  Impulse FP iterations last/mean/max 10/10.35/11
Step  1500/2000   75.0% | t 75.000 | ETA 1m 13s | step 0.14s | KE 35.2319 | drift +0.52% | fluid 9.4689 | solid 25.7630
  Impulse FP iterations last/mean/max 10/10.35/11
Step  1600/2000   80.0% | t 80.000 | ETA 58s | step 0.14s | KE 35.2507 | drift +0.57% | fluid 9.4814 | solid 25.7693
  Impulse FP iterations last/mean/max 10/10.35/11
Step  1700/2000   85.0% | t 85.000 | ETA 43s | step 0.14s | KE 35.2647 | drift +0.61% | fluid 9.4904 | solid 25.7742
  Impulse FP iterations last/mean/max 10/10.35/11
Step  1800/2000   90.0% | t 90.000 | ETA 29s | step 0.15s | KE 35.2661 | drift +0.62% | fluid 9.4907 | solid 25.7754
  Impulse FP iterations last/mean/max 10/10.35/11
Step  1900/2000   95.0% | t 95.000 | ETA 14s | step 0.13s | KE 35.2547 | drift +0.58% | fluid 9.4821 | solid 25.7725
  Impulse FP iterations last/mean/max 11/10.36/11
Solver finished successfully - good job!
Results saved successfully.

================== Run summary ==================
  Bodies:            2
  Triangles / nodes: 256 / 516
  Timesteps:         2000  (dt = 0.05)
  Simulated time:    0 -> 100
  First-step setup:  0.336 s
  Mean time/step:    0.1461 s  (excl. first step)
  Total wall time:   4m 52s
  Impulse FP iters last/mean/max: 11 / 10.369 / 11
  Approx impulse solves/step:     10.370
  Impulse start cache hits/direct: 1999 / 1
  Impulse global drift P/H:       5.301743e-8 / 1.270698e-2
  Impulse per-body max drift P/H: 1.203727e-7 / 9.113494e-3
  CPU cores:         256 available, 8 Rayon worker thread(s)
  Started:           2026-06-22 19:46:16
  Finished:          2026-06-22 19:51:13
  Output file:       /work/e643/e643/shared/multi_ellip/studies/two_body_paper_sweeps/runs/spheroid_1_0p7_0p7/spheroid_1_0p7_0p7_rho0p3_E11_sep11_run02_impulse_noproj/multiple_body_complete.dat
================================================
