
================ Simulation setup ================
  Run label:         /work/e643/e643/shared/multi_ellip/studies/two_body_paper_sweeps/runs/ellipsoid_1_0p8_0p6/ellipsoid_1_0p8_0p6_rho0p1_E0p2_sep3_run03_impulse_noproj/
  Started:           2026-06-24 02:05:08
  Input file:        /work/e643/e643/shared/multi_ellip/studies/two_body_paper_sweeps/runs/ellipsoid_1_0p8_0p6/ellipsoid_1_0p8_0p6_rho0p1_E0p2_sep3_run03_impulse_noproj/input.txt
  Output file:       /work/e643/e643/shared/multi_ellip/studies/two_body_paper_sweeps/runs/ellipsoid_1_0p8_0p6/ellipsoid_1_0p8_0p6_rho0p1_E0p2_sep3_run03_impulse_noproj/multiple_body_complete.dat
  Bodies:            2
  Fluid density:     1
  Mesh:              ndiv 2 -> 256 triangles / 516 nodes
  Simulated time:    0 -> 100  (dt = 0.05, ~2000 steps)
  Output cadence:    every 1 step(s)
  Output rows:       ~2001
  Progress cadence:  every 100 step(s)
  CPU cores:         256 available, 8 Rayon worker thread(s)
  Strong coupling:   disabled
  Impulse scheme:    enabled
  Hamiltonian step:  disabled
  Hamiltonian midpt: disabled
  Variational step:  disabled
  Energy projection: disabled
  Projection particular metric: Euclidean
  Fluid KE gradient: disabled  (eps = 0.001, scale = 1, linear = 1, angular = 1)
  Fluid KE discrete gradient: disabled
  Impulse pair metric correction: disabled  (mode = pair discrete-gradient, cutoff = all pairs, inner/outer = 0/0, eps = 0.001, linear scale = 1, angular scale = 0)
  Impulse metric correction: disabled  (internal load constraint = disabled)
  Impulse variational defect probe: disabled
  Impulse quadratic pressure: disabled  (scale = 1)
  Added-mass stab:   disabled
  Exact BEM geometry: disabled
  Exact singular BEM: disabled
  Legacy singular SLP diagnostic: disabled
  Phi-dot blend:     0 (off)

  Solver guidance:
    - Strong coupling: use for stiff close-coupled runs; slower but more implicit.
    - Impulse scheme: use when impulse/momentum conservation or KE drift is the focus. Recommended.
    - Added-mass stab: use for higher mesh counts (ndiv > 3) to preserve stability - deprecated.
================================================
Solver starting - good luck!

Initial state:
  Body  1
    density:          0.100000
    shape axes ratio: (1.000000, 0.800000, 0.600000)
    initial KE ratio: 0.200000
    position:         (-1.500000, 0.000000, 0.000000)
    velocity:         (-3.132523, 2.296470, 9.053548)
    angular velocity: (-2.692649, 1.471325, 5.482997)
    orientation:      (w=-0.309116, i=0.456535, j=-0.751960, k=0.361357)
  Body  2
    density:          0.100000
    shape axes ratio: (1.000000, 0.800000, 0.600000)
    initial KE ratio: 0.200000
    position:         (1.500000, 0.000000, 0.000000)
    velocity:         (-3.009242, 2.206092, 8.697245)
    angular velocity: (0.122133, -5.924464, 2.089073)
    orientation:      (w=-0.554648, i=-0.772809, j=-0.076312, k=-0.298845)

Preparing first step: implicit scheme, no bootstrap passes required.
First step may take longer than later steps.

First step completed in 0.351 s.

Step   100/2000    5.0% | t 5.000 | ETA 9m 31s | step 0.31s | KE 312.4259 | drift -3.96% | fluid 260.8843 | solid 51.5416
  Impulse FP iterations last/mean/max 22/21.78/24
Step   200/2000   10.0% | t 10.000 | ETA 9m 1s | step 0.29s | KE 312.7066 | drift -3.87% | fluid 268.2477 | solid 44.4589
  Impulse FP iterations last/mean/max 22/21.89/24
Step   300/2000   15.0% | t 15.000 | ETA 8m 24s | step 0.32s | KE 311.0272 | drift -4.39% | fluid 261.8399 | solid 49.1872
  Impulse FP iterations last/mean/max 22/21.92/24
Step   400/2000   20.0% | t 20.000 | ETA 7m 50s | step 0.26s | KE 311.7728 | drift -4.16% | fluid 266.6849 | solid 45.0879
  Impulse FP iterations last/mean/max 21/21.88/24
Step   500/2000   25.0% | t 25.000 | ETA 7m 19s | step 0.29s | KE 312.1521 | drift -4.04% | fluid 263.5594 | solid 48.5928
  Impulse FP iterations last/mean/max 22/21.88/25
Step   600/2000   30.0% | t 30.000 | ETA 6m 47s | step 0.30s | KE 313.5044 | drift -3.63% | fluid 265.7736 | solid 47.7308
  Impulse FP iterations last/mean/max 22/21.88/25
Step   700/2000   35.0% | t 35.000 | ETA 6m 15s | step 0.27s | KE 313.7439 | drift -3.55% | fluid 264.5487 | solid 49.1952
  Impulse FP iterations last/mean/max 22/21.89/25
Step   800/2000   40.0% | t 40.000 | ETA 5m 45s | step 0.30s | KE 314.1947 | drift -3.41% | fluid 267.0366 | solid 47.1581
  Impulse FP iterations last/mean/max 24/21.90/25
Step   900/2000   45.0% | t 45.000 | ETA 5m 17s | step 0.32s | KE 312.5393 | drift -3.92% | fluid 262.8131 | solid 49.7262
  Impulse FP iterations last/mean/max 23/21.90/25
Step  1000/2000   50.0% | t 50.000 | ETA 4m 48s | step 0.31s | KE 311.9724 | drift -4.10% | fluid 266.7726 | solid 45.1998
  Impulse FP iterations last/mean/max 22/21.90/25
Step  1100/2000   55.0% | t 55.000 | ETA 4m 17s | step 0.27s | KE 310.2422 | drift -4.63% | fluid 262.7388 | solid 47.5035
  Impulse FP iterations last/mean/max 23/21.90/25
Step  1200/2000   60.0% | t 60.000 | ETA 3m 46s | step 0.23s | KE 311.0768 | drift -4.37% | fluid 265.3062 | solid 45.7706
  Impulse FP iterations last/mean/max 21/21.92/25
Step  1300/2000   65.0% | t 65.000 | ETA 3m 16s | step 0.25s | KE 311.7092 | drift -4.18% | fluid 264.6118 | solid 47.0974
  Impulse FP iterations last/mean/max 23/21.91/25
Step  1400/2000   70.0% | t 70.000 | ETA 2m 46s | step 0.26s | KE 312.4698 | drift -3.94% | fluid 263.8669 | solid 48.6029
  Impulse FP iterations last/mean/max 24/21.92/25
Step  1500/2000   75.0% | t 75.000 | ETA 2m 18s | step 0.30s | KE 313.7594 | drift -3.55% | fluid 268.0090 | solid 45.7505
  Impulse FP iterations last/mean/max 23/21.92/25
Step  1600/2000   80.0% | t 80.000 | ETA 1m 50s | step 0.26s | KE 312.2616 | drift -4.01% | fluid 261.4884 | solid 50.7732
  Impulse FP iterations last/mean/max 21/21.93/25
Step  1700/2000   85.0% | t 85.000 | ETA 1m 22s | step 0.25s | KE 312.5019 | drift -3.93% | fluid 268.2838 | solid 44.2182
  Impulse FP iterations last/mean/max 22/21.93/25
Step  1800/2000   90.0% | t 90.000 | ETA 55s | step 0.29s | KE 310.0474 | drift -4.69% | fluid 261.9739 | solid 48.0736
  Impulse FP iterations last/mean/max 21/21.94/25
Step  1900/2000   95.0% | t 95.000 | ETA 27s | step 0.21s | KE 310.0589 | drift -4.68% | fluid 265.5955 | solid 44.4634
  Impulse FP iterations last/mean/max 18/21.93/25
Solver finished successfully - good job!
Results saved successfully.

================== Run summary ==================
  Bodies:            2
  Triangles / nodes: 256 / 516
  Timesteps:         2000  (dt = 0.05)
  Simulated time:    0 -> 100
  First-step setup:  0.351 s
  Mean time/step:    0.2733 s  (excl. first step)
  Total wall time:   9m 6s
  Impulse FP iters last/mean/max: 21 / 21.930 / 25
  Approx impulse solves/step:     21.931
  Impulse start cache hits/direct: 1999 / 1
  Impulse global drift P/H:       2.950399e-8 / 1.448719e-2
  Impulse per-body max drift P/H: 7.684759e-8 / 3.858435e-3
  CPU cores:         256 available, 8 Rayon worker thread(s)
  Started:           2026-06-24 02:05:08
  Finished:          2026-06-24 02:14:15
  Output file:       /work/e643/e643/shared/multi_ellip/studies/two_body_paper_sweeps/runs/ellipsoid_1_0p8_0p6/ellipsoid_1_0p8_0p6_rho0p1_E0p2_sep3_run03_impulse_noproj/multiple_body_complete.dat
================================================
