
================ Simulation setup ================
  Run label:         /work/e643/e643/shared/multi_ellip/studies/two_body_paper_sweeps/runs/ellipsoid_1_0p8_0p6/ellipsoid_1_0p8_0p6_rho0p03_E4_sep8_run02_impulse_noproj/
  Started:           2026-06-22 20:15:02
  Input file:        /work/e643/e643/shared/multi_ellip/studies/two_body_paper_sweeps/runs/ellipsoid_1_0p8_0p6/ellipsoid_1_0p8_0p6_rho0p03_E4_sep8_run02_impulse_noproj/input.txt
  Output file:       /work/e643/e643/shared/multi_ellip/studies/two_body_paper_sweeps/runs/ellipsoid_1_0p8_0p6/ellipsoid_1_0p8_0p6_rho0p03_E4_sep8_run02_impulse_noproj/multiple_body_complete.dat
  Bodies:            2
  Fluid density:     1
  Mesh:              ndiv 2 -> 256 triangles / 516 nodes
  Simulated time:    0 -> 100  (dt = 0.05, ~2000 steps)
  Output cadence:    every 1 step(s)
  Output rows:       ~2001
  Progress cadence:  every 100 step(s)
  CPU cores:         256 available, 8 Rayon worker thread(s)
  Strong coupling:   disabled
  Impulse scheme:    enabled
  Hamiltonian step:  disabled
  Hamiltonian midpt: disabled
  Variational step:  disabled
  Energy projection: disabled
  Projection particular metric: Euclidean
  Fluid KE gradient: disabled  (eps = 0.001, scale = 1, linear = 1, angular = 1)
  Fluid KE discrete gradient: disabled
  Impulse pair metric correction: disabled  (mode = pair discrete-gradient, cutoff = all pairs, inner/outer = 0/0, eps = 0.001, linear scale = 1, angular scale = 0)
  Impulse metric correction: disabled  (internal load constraint = disabled)
  Impulse variational defect probe: disabled
  Impulse quadratic pressure: disabled  (scale = 1)
  Added-mass stab:   disabled
  Exact BEM geometry: disabled
  Exact singular BEM: disabled
  Legacy singular SLP diagnostic: disabled
  Phi-dot blend:     0 (off)

  Solver guidance:
    - Strong coupling: use for stiff close-coupled runs; slower but more implicit.
    - Impulse scheme: use when impulse/momentum conservation or KE drift is the focus. Recommended.
    - Added-mass stab: use for higher mesh counts (ndiv > 3) to preserve stability - deprecated.
================================================
Solver starting - good luck!

Initial state:
  Body  1
    density:          0.030000
    shape axes ratio: (1.000000, 0.800000, 0.600000)
    initial KE ratio: 4.000000
    position:         (-4.000000, 0.000000, 0.000000)
    velocity:         (0.444653, 1.487158, -1.134985)
    angular velocity: (-5.360449, 1.907832, -2.665367)
    orientation:      (w=0.577350, i=0.577350, j=0.577350, k=0.000000)
  Body  2
    density:          0.030000
    shape axes ratio: (1.000000, 0.800000, 0.600000)
    initial KE ratio: 4.000000
    position:         (4.000000, 0.000000, 0.000000)
    velocity:         (0.484597, 1.620752, -1.236943)
    angular velocity: (0.824948, -6.112825, 1.196350)
    orientation:      (w=0.577350, i=-0.577350, j=0.000000, k=0.577350)

Preparing first step: implicit scheme, no bootstrap passes required.
First step may take longer than later steps.

First step completed in 0.471 s.

Step   100/2000    5.0% | t 5.000 | ETA 9m 29s | step 0.31s | KE 15.0001 | drift +1.07% | fluid 12.2646 | solid 2.7354
  Impulse FP iterations last/mean/max 30/29.65/30
Step   200/2000   10.0% | t 10.000 | ETA 10m 8s | step 0.39s | KE 15.1394 | drift +2.01% | fluid 11.8990 | solid 3.2404
  Impulse FP iterations last/mean/max 29/29.71/30
Step   300/2000   15.0% | t 15.000 | ETA 10m 10s | step 0.41s | KE 15.5013 | drift +4.44% | fluid 11.8514 | solid 3.6498
  Impulse FP iterations last/mean/max 30/29.73/30
Step   400/2000   20.0% | t 20.000 | ETA 9m 52s | step 0.42s | KE 16.0421 | drift +8.09% | fluid 12.9716 | solid 3.0705
  Impulse FP iterations last/mean/max 30/29.70/30
Step   500/2000   25.0% | t 25.000 | ETA 9m 25s | step 0.41s | KE 16.6562 | drift +12.23% | fluid 13.5054 | solid 3.1509
  Impulse FP iterations last/mean/max 30/29.74/30
Step   600/2000   30.0% | t 30.000 | ETA 8m 53s | step 0.40s | KE 17.2882 | drift +16.48% | fluid 13.6147 | solid 3.6735
  Impulse FP iterations last/mean/max 30/29.76/30
Step   700/2000   35.0% | t 35.000 | ETA 8m 19s | step 0.40s | KE 17.6764 | drift +19.10% | fluid 14.5505 | solid 3.1259
  Impulse FP iterations last/mean/max 30/29.79/30
Step   800/2000   40.0% | t 40.000 | ETA 7m 42s | step 0.39s | KE 17.8868 | drift +20.52% | fluid 15.0906 | solid 2.7962
  Impulse FP iterations last/mean/max 30/29.80/30
Step   900/2000   45.0% | t 45.000 | ETA 7m 5s | step 0.39s | KE 18.1665 | drift +22.40% | fluid 14.3084 | solid 3.8580
  Impulse FP iterations last/mean/max 30/29.81/30
Step  1000/2000   50.0% | t 50.000 | ETA 6m 27s | step 0.41s | KE 18.6405 | drift +25.60% | fluid 14.7995 | solid 3.8410
  Impulse FP iterations last/mean/max 30/29.82/30
Step  1100/2000   55.0% | t 55.000 | ETA 5m 49s | step 0.38s | KE 19.0399 | drift +28.29% | fluid 15.4777 | solid 3.5622
  Impulse FP iterations last/mean/max 30/29.83/30
Step  1200/2000   60.0% | t 60.000 | ETA 5m 11s | step 0.41s | KE 18.9620 | drift +27.76% | fluid 15.4098 | solid 3.5522
  Impulse FP iterations last/mean/max 30/29.84/30
Step  1300/2000   65.0% | t 65.000 | ETA 4m 32s | step 0.38s | KE 18.8606 | drift +27.08% | fluid 14.9145 | solid 3.9461
  Impulse FP iterations last/mean/max 30/29.85/30
Step  1400/2000   70.0% | t 70.000 | ETA 3m 53s | step 0.38s | KE 18.9287 | drift +27.54% | fluid 14.7979 | solid 4.1308
  Impulse FP iterations last/mean/max 30/29.85/30
Step  1500/2000   75.0% | t 75.000 | ETA 3m 15s | step 0.41s | KE 19.1204 | drift +28.83% | fluid 16.0031 | solid 3.1173
  Impulse FP iterations last/mean/max 30/29.86/30
Step  1600/2000   80.0% | t 80.000 | ETA 2m 36s | step 0.40s | KE 18.9363 | drift +27.59% | fluid 15.4021 | solid 3.5342
  Impulse FP iterations last/mean/max 30/29.87/30
Step  1700/2000   85.0% | t 85.000 | ETA 1m 57s | step 0.40s | KE 19.1036 | drift +28.72% | fluid 15.3167 | solid 3.7869
  Impulse FP iterations last/mean/max 30/29.87/30
Step  1800/2000   90.0% | t 90.000 | ETA 1m 18s | step 0.40s | KE 19.1585 | drift +29.09% | fluid 15.5707 | solid 3.5878
  Impulse FP iterations last/mean/max 30/29.87/30
Step  1900/2000   95.0% | t 95.000 | ETA 39s | step 0.38s | KE 19.0537 | drift +28.38% | fluid 14.4766 | solid 4.5772
  Impulse FP iterations last/mean/max 30/29.88/30
Solver finished successfully - good job!
Results saved successfully.

================== Run summary ==================
  Bodies:            2
  Triangles / nodes: 256 / 516
  Timesteps:         2000  (dt = 0.05)
  Simulated time:    0 -> 100
  First-step setup:  0.471 s
  Mean time/step:    0.3875 s  (excl. first step)
  Total wall time:   12m 55s
  Impulse FP iters last/mean/max: 30 / 29.875 / 30
  Approx impulse solves/step:     29.875
  Impulse start cache hits/direct: 1999 / 1
  Impulse global drift P/H:       7.765102e-6 / 1.052737e-2
  Impulse per-body max drift P/H: 1.309063e-5 / 1.220994e-3
  CPU cores:         256 available, 8 Rayon worker thread(s)
  Started:           2026-06-22 20:15:02
  Finished:          2026-06-22 20:28:00
  Output file:       /work/e643/e643/shared/multi_ellip/studies/two_body_paper_sweeps/runs/ellipsoid_1_0p8_0p6/ellipsoid_1_0p8_0p6_rho0p03_E4_sep8_run02_impulse_noproj/multiple_body_complete.dat
================================================
