
================ Simulation setup ================
  Run label:         /work/e643/e643/shared/multi_ellip/studies/two_body_paper_sweeps/runs/spheroid_1_0p7_0p7/spheroid_1_0p7_0p7_rho4_E0p2_sep3_run04_impulse_noproj/
  Started:           2026-06-24 01:21:55
  Input file:        /work/e643/e643/shared/multi_ellip/studies/two_body_paper_sweeps/runs/spheroid_1_0p7_0p7/spheroid_1_0p7_0p7_rho4_E0p2_sep3_run04_impulse_noproj/input.txt
  Output file:       /work/e643/e643/shared/multi_ellip/studies/two_body_paper_sweeps/runs/spheroid_1_0p7_0p7/spheroid_1_0p7_0p7_rho4_E0p2_sep3_run04_impulse_noproj/multiple_body_complete.dat
  Bodies:            2
  Fluid density:     1
  Mesh:              ndiv 2 -> 256 triangles / 516 nodes
  Simulated time:    0 -> 100  (dt = 0.05, ~2000 steps)
  Output cadence:    every 1 step(s)
  Output rows:       ~2001
  Progress cadence:  every 100 step(s)
  CPU cores:         256 available, 8 Rayon worker thread(s)
  Strong coupling:   disabled
  Impulse scheme:    enabled
  Hamiltonian step:  disabled
  Hamiltonian midpt: disabled
  Variational step:  disabled
  Energy projection: disabled
  Projection particular metric: Euclidean
  Fluid KE gradient: disabled  (eps = 0.001, scale = 1, linear = 1, angular = 1)
  Fluid KE discrete gradient: disabled
  Impulse pair metric correction: disabled  (mode = pair discrete-gradient, cutoff = all pairs, inner/outer = 0/0, eps = 0.001, linear scale = 1, angular scale = 0)
  Impulse metric correction: disabled  (internal load constraint = disabled)
  Impulse variational defect probe: disabled
  Impulse quadratic pressure: disabled  (scale = 1)
  Added-mass stab:   disabled
  Exact BEM geometry: disabled
  Exact singular BEM: disabled
  Legacy singular SLP diagnostic: disabled
  Phi-dot blend:     0 (off)

  Solver guidance:
    - Strong coupling: use for stiff close-coupled runs; slower but more implicit.
    - Impulse scheme: use when impulse/momentum conservation or KE drift is the focus. Recommended.
    - Added-mass stab: use for higher mesh counts (ndiv > 3) to preserve stability - deprecated.
================================================
Solver starting - good luck!

Initial state:
  Body  1
    density:          4.000000
    shape axes ratio: (1.000000, 0.700000, 0.700000)
    initial KE ratio: 0.200000
    position:         (-1.500000, 0.000000, 0.000000)
    velocity:         (0.072424, -7.278879, -6.318170)
    angular velocity: (-1.454101, 3.825751, 4.767351)
    orientation:      (w=-0.634442, i=-0.644826, j=-0.293493, k=0.309103)
  Body  2
    density:          4.000000
    shape axes ratio: (1.000000, 0.700000, 0.700000)
    initial KE ratio: 0.200000
    position:         (1.500000, 0.000000, 0.000000)
    velocity:         (0.065718, -6.604860, -5.733112)
    angular velocity: (4.702400, -0.906900, 4.067356)
    orientation:      (w=-0.153672, i=0.578163, j=-0.513462, k=0.615198)

Preparing first step: implicit scheme, no bootstrap passes required.
First step may take longer than later steps.

First step completed in 0.240 s.

Step   100/2000    5.0% | t 5.000 | ETA 3m 36s | step 0.11s | KE 1891.7009 | drift -2.31% | fluid 208.7193 | solid 1682.9816
  Impulse FP iterations last/mean/max 8/8.21/9
Step   200/2000   10.0% | t 10.000 | ETA 3m 23s | step 0.11s | KE 1912.3092 | drift -1.25% | fluid 203.7729 | solid 1708.5363
  Impulse FP iterations last/mean/max 8/8.05/9
Step   300/2000   15.0% | t 15.000 | ETA 3m 11s | step 0.11s | KE 1906.3703 | drift -1.55% | fluid 214.0030 | solid 1692.3673
  Impulse FP iterations last/mean/max 8/7.98/9
Step   400/2000   20.0% | t 20.000 | ETA 2m 59s | step 0.10s | KE 1908.4088 | drift -1.45% | fluid 225.5476 | solid 1682.8612
  Impulse FP iterations last/mean/max 7/7.93/9
Step   500/2000   25.0% | t 25.000 | ETA 2m 47s | step 0.11s | KE 1906.7444 | drift -1.54% | fluid 230.6040 | solid 1676.1404
  Impulse FP iterations last/mean/max 8/7.91/9
Step   600/2000   30.0% | t 30.000 | ETA 2m 36s | step 0.12s | KE 1907.7695 | drift -1.48% | fluid 219.8108 | solid 1687.9587
  Impulse FP iterations last/mean/max 8/7.89/9
Step   700/2000   35.0% | t 35.000 | ETA 2m 25s | step 0.12s | KE 1907.6955 | drift -1.49% | fluid 204.1842 | solid 1703.5113
  Impulse FP iterations last/mean/max 8/7.88/9
Step   800/2000   40.0% | t 40.000 | ETA 2m 14s | step 0.11s | KE 1908.1886 | drift -1.46% | fluid 193.9473 | solid 1714.2413
  Impulse FP iterations last/mean/max 8/7.88/9
Step   900/2000   45.0% | t 45.000 | ETA 2m 2s | step 0.11s | KE 1908.0076 | drift -1.47% | fluid 192.6994 | solid 1715.3082
  Impulse FP iterations last/mean/max 8/7.87/9
Step  1000/2000   50.0% | t 50.000 | ETA 1m 51s | step 0.11s | KE 1907.9555 | drift -1.47% | fluid 202.3355 | solid 1705.6200
  Impulse FP iterations last/mean/max 8/7.87/9
Step  1100/2000   55.0% | t 55.000 | ETA 1m 40s | step 0.11s | KE 1907.5125 | drift -1.50% | fluid 216.7922 | solid 1690.7203
  Impulse FP iterations last/mean/max 8/7.86/9
Step  1200/2000   60.0% | t 60.000 | ETA 1m 29s | step 0.12s | KE 1907.2558 | drift -1.51% | fluid 230.1583 | solid 1677.0975
  Impulse FP iterations last/mean/max 8/7.86/9
Step  1300/2000   65.0% | t 65.000 | ETA 1m 17s | step 0.11s | KE 1907.3652 | drift -1.50% | fluid 226.8863 | solid 1680.4789
  Impulse FP iterations last/mean/max 8/7.86/9
Step  1400/2000   70.0% | t 70.000 | ETA 1m 6s | step 0.09s | KE 1907.8107 | drift -1.48% | fluid 216.6575 | solid 1691.1533
  Impulse FP iterations last/mean/max 7/7.85/9
Step  1500/2000   75.0% | t 75.000 | ETA 55s | step 0.11s | KE 1908.1051 | drift -1.46% | fluid 204.2187 | solid 1703.8864
  Impulse FP iterations last/mean/max 8/7.85/9
Step  1600/2000   80.0% | t 80.000 | ETA 44s | step 0.10s | KE 1908.1131 | drift -1.46% | fluid 206.6733 | solid 1701.4398
  Impulse FP iterations last/mean/max 8/7.85/9
Step  1700/2000   85.0% | t 85.000 | ETA 33s | step 0.10s | KE 1907.8005 | drift -1.48% | fluid 214.2429 | solid 1693.5575
  Impulse FP iterations last/mean/max 7/7.84/9
Step  1800/2000   90.0% | t 90.000 | ETA 21s | step 0.08s | KE 1907.3752 | drift -1.50% | fluid 229.2639 | solid 1678.1113
  Impulse FP iterations last/mean/max 7/7.84/9
Step  1900/2000   95.0% | t 95.000 | ETA 10s | step 0.10s | KE 1907.2338 | drift -1.51% | fluid 227.8226 | solid 1679.4111
  Impulse FP iterations last/mean/max 8/7.84/9
Solver finished successfully - good job!
Results saved successfully.

================== Run summary ==================
  Bodies:            2
  Triangles / nodes: 256 / 516
  Timesteps:         2000  (dt = 0.05)
  Simulated time:    0 -> 100
  First-step setup:  0.240 s
  Mean time/step:    0.1075 s  (excl. first step)
  Total wall time:   3m 35s
  Impulse FP iters last/mean/max: 8 / 7.840 / 9
  Approx impulse solves/step:     7.840
  Impulse start cache hits/direct: 1999 / 1
  Impulse global drift P/H:       4.577401e-9 / 6.370596e-3
  Impulse per-body max drift P/H: 5.565640e-9 / 2.132571e-3
  CPU cores:         256 available, 8 Rayon worker thread(s)
  Started:           2026-06-24 01:21:55
  Finished:          2026-06-24 01:25:30
  Output file:       /work/e643/e643/shared/multi_ellip/studies/two_body_paper_sweeps/runs/spheroid_1_0p7_0p7/spheroid_1_0p7_0p7_rho4_E0p2_sep3_run04_impulse_noproj/multiple_body_complete.dat
================================================
