
================ Simulation setup ================
  Run label:         /work/e643/e643/shared/multi_ellip/studies/two_body_paper_sweeps/runs/ellipsoid_1_0p8_0p6/ellipsoid_1_0p8_0p6_rho1_E11_sep11_run04_impulse_noproj/
  Started:           2026-06-24 01:44:18
  Input file:        /work/e643/e643/shared/multi_ellip/studies/two_body_paper_sweeps/runs/ellipsoid_1_0p8_0p6/ellipsoid_1_0p8_0p6_rho1_E11_sep11_run04_impulse_noproj/input.txt
  Output file:       /work/e643/e643/shared/multi_ellip/studies/two_body_paper_sweeps/runs/ellipsoid_1_0p8_0p6/ellipsoid_1_0p8_0p6_rho1_E11_sep11_run04_impulse_noproj/multiple_body_complete.dat
  Bodies:            2
  Fluid density:     1
  Mesh:              ndiv 2 -> 256 triangles / 516 nodes
  Simulated time:    0 -> 100  (dt = 0.05, ~2000 steps)
  Output cadence:    every 1 step(s)
  Output rows:       ~2001
  Progress cadence:  every 100 step(s)
  CPU cores:         256 available, 8 Rayon worker thread(s)
  Strong coupling:   disabled
  Impulse scheme:    enabled
  Hamiltonian step:  disabled
  Hamiltonian midpt: disabled
  Variational step:  disabled
  Energy projection: disabled
  Projection particular metric: Euclidean
  Fluid KE gradient: disabled  (eps = 0.001, scale = 1, linear = 1, angular = 1)
  Fluid KE discrete gradient: disabled
  Impulse pair metric correction: disabled  (mode = pair discrete-gradient, cutoff = all pairs, inner/outer = 0/0, eps = 0.001, linear scale = 1, angular scale = 0)
  Impulse metric correction: disabled  (internal load constraint = disabled)
  Impulse variational defect probe: disabled
  Impulse quadratic pressure: disabled  (scale = 1)
  Added-mass stab:   disabled
  Exact BEM geometry: disabled
  Exact singular BEM: disabled
  Legacy singular SLP diagnostic: disabled
  Phi-dot blend:     0 (off)

  Solver guidance:
    - Strong coupling: use for stiff close-coupled runs; slower but more implicit.
    - Impulse scheme: use when impulse/momentum conservation or KE drift is the focus. Recommended.
    - Added-mass stab: use for higher mesh counts (ndiv > 3) to preserve stability - deprecated.
================================================
Solver starting - good luck!

Initial state:
  Body  1
    density:          1.000000
    shape axes ratio: (1.000000, 0.800000, 0.600000)
    initial KE ratio: 11.000000
    position:         (-5.500000, 0.000000, 0.000000)
    velocity:         (0.427911, -0.207114, 1.111012)
    angular velocity: (-4.173659, -3.944505, 2.549484)
    orientation:      (w=0.095056, i=0.878119, j=-0.217738, k=0.415286)
  Body  2
    density:          1.000000
    shape axes ratio: (1.000000, 0.800000, 0.600000)
    initial KE ratio: 11.000000
    position:         (5.500000, 0.000000, 0.000000)
    velocity:         (0.476503, -0.230633, 1.237175)
    angular velocity: (0.902607, -3.362445, -5.230457)
    orientation:      (w=0.606553, i=-0.339257, j=0.115942, k=-0.709616)

Preparing first step: implicit scheme, no bootstrap passes required.
First step may take longer than later steps.

First step completed in 0.270 s.

Step   100/2000    5.0% | t 5.000 | ETA 4m 43s | step 0.15s | KE 98.0291 | drift -0.10% | fluid 10.5770 | solid 87.4521
  Impulse FP iterations last/mean/max 11/10.88/11
Step   200/2000   10.0% | t 10.000 | ETA 4m 32s | step 0.15s | KE 97.9630 | drift -0.17% | fluid 14.0756 | solid 83.8875
  Impulse FP iterations last/mean/max 10/10.87/11
Step   300/2000   15.0% | t 15.000 | ETA 4m 17s | step 0.15s | KE 97.9503 | drift -0.18% | fluid 12.3226 | solid 85.6277
  Impulse FP iterations last/mean/max 11/10.82/11
Step   400/2000   20.0% | t 20.000 | ETA 3m 59s | step 0.14s | KE 97.9498 | drift -0.18% | fluid 11.5842 | solid 86.3656
  Impulse FP iterations last/mean/max 11/10.84/11
Step   500/2000   25.0% | t 25.000 | ETA 3m 39s | step 0.12s | KE 97.9554 | drift -0.17% | fluid 14.4134 | solid 83.5420
  Impulse FP iterations last/mean/max 11/10.85/11
Step   600/2000   30.0% | t 30.000 | ETA 3m 25s | step 0.16s | KE 98.0112 | drift -0.12% | fluid 11.2313 | solid 86.7799
  Impulse FP iterations last/mean/max 11/10.81/11
Step   700/2000   35.0% | t 35.000 | ETA 3m 11s | step 0.15s | KE 98.0348 | drift -0.09% | fluid 11.8322 | solid 86.2026
  Impulse FP iterations last/mean/max 11/10.82/11
Step   800/2000   40.0% | t 40.000 | ETA 2m 57s | step 0.13s | KE 98.0377 | drift -0.09% | fluid 13.4955 | solid 84.5422
  Impulse FP iterations last/mean/max 10/10.82/11
Step   900/2000   45.0% | t 45.000 | ETA 2m 42s | step 0.16s | KE 98.0131 | drift -0.12% | fluid 10.8530 | solid 87.1601
  Impulse FP iterations last/mean/max 11/10.79/11
Step  1000/2000   50.0% | t 50.000 | ETA 2m 28s | step 0.15s | KE 97.9792 | drift -0.15% | fluid 13.3680 | solid 84.6112
  Impulse FP iterations last/mean/max 11/10.80/11
Step  1100/2000   55.0% | t 55.000 | ETA 2m 14s | step 0.15s | KE 97.9872 | drift -0.14% | fluid 13.7386 | solid 84.2486
  Impulse FP iterations last/mean/max 11/10.81/11
Step  1200/2000   60.0% | t 60.000 | ETA 1m 59s | step 0.15s | KE 98.0032 | drift -0.13% | fluid 10.5819 | solid 87.4212
  Impulse FP iterations last/mean/max 11/10.79/11
Step  1300/2000   65.0% | t 65.000 | ETA 1m 44s | step 0.16s | KE 98.0246 | drift -0.10% | fluid 12.9829 | solid 85.0417
  Impulse FP iterations last/mean/max 11/10.79/11
Step  1400/2000   70.0% | t 70.000 | ETA 1m 29s | step 0.14s | KE 98.0347 | drift -0.09% | fluid 12.7488 | solid 85.2859
  Impulse FP iterations last/mean/max 10/10.79/11
Step  1500/2000   75.0% | t 75.000 | ETA 1m 14s | step 0.15s | KE 98.0270 | drift -0.10% | fluid 10.3609 | solid 87.6661
  Impulse FP iterations last/mean/max 11/10.79/11
Step  1600/2000   80.0% | t 80.000 | ETA 59s | step 0.14s | KE 98.0144 | drift -0.11% | fluid 13.3627 | solid 84.6518
  Impulse FP iterations last/mean/max 11/10.79/11
Step  1700/2000   85.0% | t 85.000 | ETA 44s | step 0.16s | KE 97.9953 | drift -0.13% | fluid 13.0387 | solid 84.9566
  Impulse FP iterations last/mean/max 11/10.79/11
Step  1800/2000   90.0% | t 90.000 | ETA 29s | step 0.14s | KE 98.0133 | drift -0.12% | fluid 10.8241 | solid 87.1891
  Impulse FP iterations last/mean/max 11/10.79/11
Step  1900/2000   95.0% | t 95.000 | ETA 15s | step 0.16s | KE 98.0331 | drift -0.09% | fluid 13.4562 | solid 84.5769
  Impulse FP iterations last/mean/max 11/10.80/11
Solver finished successfully - good job!
Results saved successfully.

================== Run summary ==================
  Bodies:            2
  Triangles / nodes: 256 / 516
  Timesteps:         2000  (dt = 0.05)
  Simulated time:    0 -> 100
  First-step setup:  0.270 s
  Mean time/step:    0.1500 s  (excl. first step)
  Total wall time:   5m 0s
  Impulse FP iters last/mean/max: 11 / 10.794 / 11
  Approx impulse solves/step:     10.795
  Impulse start cache hits/direct: 1999 / 1
  Impulse global drift P/H:       9.238995e-9 / 1.255953e-2
  Impulse per-body max drift P/H: 1.400232e-8 / 6.015342e-3
  CPU cores:         256 available, 8 Rayon worker thread(s)
  Started:           2026-06-24 01:44:18
  Finished:          2026-06-24 01:49:18
  Output file:       /work/e643/e643/shared/multi_ellip/studies/two_body_paper_sweeps/runs/ellipsoid_1_0p8_0p6/ellipsoid_1_0p8_0p6_rho1_E11_sep11_run04_impulse_noproj/multiple_body_complete.dat
================================================
