
================ Simulation setup ================
  Run label:         /work/e643/e643/shared/multi_ellip/studies/two_body_paper_sweeps/runs/ellipsoid_1_0p8_0p6/ellipsoid_1_0p8_0p6_rho0p1_E30_sep8_run04_impulse_noproj/
  Started:           2026-06-24 02:24:41
  Input file:        /work/e643/e643/shared/multi_ellip/studies/two_body_paper_sweeps/runs/ellipsoid_1_0p8_0p6/ellipsoid_1_0p8_0p6_rho0p1_E30_sep8_run04_impulse_noproj/input.txt
  Output file:       /work/e643/e643/shared/multi_ellip/studies/two_body_paper_sweeps/runs/ellipsoid_1_0p8_0p6/ellipsoid_1_0p8_0p6_rho0p1_E30_sep8_run04_impulse_noproj/multiple_body_complete.dat
  Bodies:            2
  Fluid density:     1
  Mesh:              ndiv 2 -> 256 triangles / 516 nodes
  Simulated time:    0 -> 100  (dt = 0.05, ~2000 steps)
  Output cadence:    every 1 step(s)
  Output rows:       ~2001
  Progress cadence:  every 100 step(s)
  CPU cores:         256 available, 8 Rayon worker thread(s)
  Strong coupling:   disabled
  Impulse scheme:    enabled
  Hamiltonian step:  disabled
  Hamiltonian midpt: disabled
  Variational step:  disabled
  Energy projection: disabled
  Projection particular metric: Euclidean
  Fluid KE gradient: disabled  (eps = 0.001, scale = 1, linear = 1, angular = 1)
  Fluid KE discrete gradient: disabled
  Impulse pair metric correction: disabled  (mode = pair discrete-gradient, cutoff = all pairs, inner/outer = 0/0, eps = 0.001, linear scale = 1, angular scale = 0)
  Impulse metric correction: disabled  (internal load constraint = disabled)
  Impulse variational defect probe: disabled
  Impulse quadratic pressure: disabled  (scale = 1)
  Added-mass stab:   disabled
  Exact BEM geometry: disabled
  Exact singular BEM: disabled
  Legacy singular SLP diagnostic: disabled
  Phi-dot blend:     0 (off)

  Solver guidance:
    - Strong coupling: use for stiff close-coupled runs; slower but more implicit.
    - Impulse scheme: use when impulse/momentum conservation or KE drift is the focus. Recommended.
    - Added-mass stab: use for higher mesh counts (ndiv > 3) to preserve stability - deprecated.
================================================
Solver starting - good luck!

Initial state:
  Body  1
    density:          0.100000
    shape axes ratio: (1.000000, 0.800000, 0.600000)
    initial KE ratio: 30.000000
    position:         (-4.000000, 0.000000, 0.000000)
    velocity:         (0.494735, -0.447626, -0.202728)
    angular velocity: (5.020301, 3.733109, 0.582143)
    orientation:      (w=-0.690235, i=0.198307, j=-0.695212, k=-0.030502)
  Body  2
    density:          0.100000
    shape axes ratio: (1.000000, 0.800000, 0.600000)
    initial KE ratio: 30.000000
    position:         (4.000000, 0.000000, 0.000000)
    velocity:         (0.552274, -0.499686, -0.226306)
    angular velocity: (-2.625354, 4.060218, 4.012551)
    orientation:      (w=-0.588278, i=0.649745, j=-0.342546, k=0.338265)

Preparing first step: implicit scheme, no bootstrap passes required.
First step may take longer than later steps.

First step completed in 0.372 s.

Step   100/2000    5.0% | t 5.000 | ETA 8m 44s | step 0.28s | KE 14.4577 | drift +0.40% | fluid 6.9318 | solid 7.5259
  Impulse FP iterations last/mean/max 20/20.24/23
Step   200/2000   10.0% | t 10.000 | ETA 8m 12s | step 0.29s | KE 14.5336 | drift +0.93% | fluid 7.9755 | solid 6.5581
  Impulse FP iterations last/mean/max 21/20.18/23
Step   300/2000   15.0% | t 15.000 | ETA 7m 35s | step 0.25s | KE 14.6879 | drift +2.00% | fluid 7.7272 | solid 6.9607
  Impulse FP iterations last/mean/max 21/20.23/23
Step   400/2000   20.0% | t 20.000 | ETA 7m 7s | step 0.28s | KE 14.9039 | drift +3.50% | fluid 6.9906 | solid 7.9133
  Impulse FP iterations last/mean/max 20/20.26/23
Step   500/2000   25.0% | t 25.000 | ETA 6m 39s | step 0.26s | KE 15.1638 | drift +5.30% | fluid 6.9244 | solid 8.2394
  Impulse FP iterations last/mean/max 21/20.30/23
Step   600/2000   30.0% | t 30.000 | ETA 6m 7s | step 0.24s | KE 15.3924 | drift +6.89% | fluid 7.2450 | solid 8.1473
  Impulse FP iterations last/mean/max 21/20.30/23
Step   700/2000   35.0% | t 35.000 | ETA 5m 39s | step 0.27s | KE 15.5300 | drift +7.85% | fluid 8.1965 | solid 7.3335
  Impulse FP iterations last/mean/max 21/20.32/23
Step   800/2000   40.0% | t 40.000 | ETA 5m 14s | step 0.24s | KE 15.5479 | drift +7.97% | fluid 7.5858 | solid 7.9622
  Impulse FP iterations last/mean/max 20/20.35/23
Step   900/2000   45.0% | t 45.000 | ETA 4m 48s | step 0.24s | KE 15.5183 | drift +7.76% | fluid 7.6313 | solid 7.8870
  Impulse FP iterations last/mean/max 20/20.36/24
Step  1000/2000   50.0% | t 50.000 | ETA 4m 21s | step 0.30s | KE 15.5037 | drift +7.66% | fluid 7.4602 | solid 8.0435
  Impulse FP iterations last/mean/max 21/20.37/24
Step  1100/2000   55.0% | t 55.000 | ETA 3m 54s | step 0.26s | KE 15.4654 | drift +7.40% | fluid 7.6423 | solid 7.8231
  Impulse FP iterations last/mean/max 21/20.36/24
Step  1200/2000   60.0% | t 60.000 | ETA 3m 27s | step 0.24s | KE 15.4304 | drift +7.15% | fluid 7.0229 | solid 8.4075
  Impulse FP iterations last/mean/max 20/20.35/24
Step  1300/2000   65.0% | t 65.000 | ETA 3m 0s | step 0.24s | KE 15.3775 | drift +6.79% | fluid 8.3485 | solid 7.0290
  Impulse FP iterations last/mean/max 20/20.34/24
Step  1400/2000   70.0% | t 70.000 | ETA 2m 34s | step 0.25s | KE 15.3598 | drift +6.66% | fluid 7.4475 | solid 7.9123
  Impulse FP iterations last/mean/max 21/20.33/24
Step  1500/2000   75.0% | t 75.000 | ETA 2m 8s | step 0.24s | KE 15.3718 | drift +6.75% | fluid 7.5909 | solid 7.7809
  Impulse FP iterations last/mean/max 20/20.33/24
Step  1600/2000   80.0% | t 80.000 | ETA 1m 42s | step 0.29s | KE 15.3691 | drift +6.73% | fluid 7.1077 | solid 8.2614
  Impulse FP iterations last/mean/max 22/20.33/24
Step  1700/2000   85.0% | t 85.000 | ETA 1m 17s | step 0.29s | KE 15.3585 | drift +6.65% | fluid 7.2233 | solid 8.1352
  Impulse FP iterations last/mean/max 20/20.33/24
Step  1800/2000   90.0% | t 90.000 | ETA 51s | step 0.25s | KE 15.3375 | drift +6.51% | fluid 7.8337 | solid 7.5038
  Impulse FP iterations last/mean/max 21/20.32/24
Step  1900/2000   95.0% | t 95.000 | ETA 25s | step 0.26s | KE 15.3400 | drift +6.53% | fluid 8.0215 | solid 7.3185
  Impulse FP iterations last/mean/max 22/20.32/24
Solver finished successfully - good job!
Results saved successfully.

================== Run summary ==================
  Bodies:            2
  Triangles / nodes: 256 / 516
  Timesteps:         2000  (dt = 0.05)
  Simulated time:    0 -> 100
  First-step setup:  0.372 s
  Mean time/step:    0.2553 s  (excl. first step)
  Total wall time:   8m 30s
  Impulse FP iters last/mean/max: 20 / 20.322 / 24
  Approx impulse solves/step:     20.322
  Impulse start cache hits/direct: 1999 / 1
  Impulse global drift P/H:       1.101205e-7 / 9.030215e-3
  Impulse per-body max drift P/H: 2.121650e-7 / 9.308259e-3
  CPU cores:         256 available, 8 Rayon worker thread(s)
  Started:           2026-06-24 02:24:41
  Finished:          2026-06-24 02:33:12
  Output file:       /work/e643/e643/shared/multi_ellip/studies/two_body_paper_sweeps/runs/ellipsoid_1_0p8_0p6/ellipsoid_1_0p8_0p6_rho0p1_E30_sep8_run04_impulse_noproj/multiple_body_complete.dat
================================================
