
================ Simulation setup ================
  Run label:         /work/e643/e643/shared/multi_ellip/studies/two_body_paper_sweeps/runs/spheroid_1_0p7_0p7/spheroid_1_0p7_0p7_rho0p1_E30_sep11_run03_impulse_noproj/
  Started:           2026-06-24 02:15:03
  Input file:        /work/e643/e643/shared/multi_ellip/studies/two_body_paper_sweeps/runs/spheroid_1_0p7_0p7/spheroid_1_0p7_0p7_rho0p1_E30_sep11_run03_impulse_noproj/input.txt
  Output file:       /work/e643/e643/shared/multi_ellip/studies/two_body_paper_sweeps/runs/spheroid_1_0p7_0p7/spheroid_1_0p7_0p7_rho0p1_E30_sep11_run03_impulse_noproj/multiple_body_complete.dat
  Bodies:            2
  Fluid density:     1
  Mesh:              ndiv 2 -> 256 triangles / 516 nodes
  Simulated time:    0 -> 100  (dt = 0.05, ~2000 steps)
  Output cadence:    every 1 step(s)
  Output rows:       ~2001
  Progress cadence:  every 100 step(s)
  CPU cores:         256 available, 8 Rayon worker thread(s)
  Strong coupling:   disabled
  Impulse scheme:    enabled
  Hamiltonian step:  disabled
  Hamiltonian midpt: disabled
  Variational step:  disabled
  Energy projection: disabled
  Projection particular metric: Euclidean
  Fluid KE gradient: disabled  (eps = 0.001, scale = 1, linear = 1, angular = 1)
  Fluid KE discrete gradient: disabled
  Impulse pair metric correction: disabled  (mode = pair discrete-gradient, cutoff = all pairs, inner/outer = 0/0, eps = 0.001, linear scale = 1, angular scale = 0)
  Impulse metric correction: disabled  (internal load constraint = disabled)
  Impulse variational defect probe: disabled
  Impulse quadratic pressure: disabled  (scale = 1)
  Added-mass stab:   disabled
  Exact BEM geometry: disabled
  Exact singular BEM: disabled
  Legacy singular SLP diagnostic: disabled
  Phi-dot blend:     0 (off)

  Solver guidance:
    - Strong coupling: use for stiff close-coupled runs; slower but more implicit.
    - Impulse scheme: use when impulse/momentum conservation or KE drift is the focus. Recommended.
    - Added-mass stab: use for higher mesh counts (ndiv > 3) to preserve stability - deprecated.
================================================
Solver starting - good luck!

Initial state:
  Body  1
    density:          0.100000
    shape axes ratio: (1.000000, 0.700000, 0.700000)
    initial KE ratio: 30.000000
    position:         (-5.500000, 0.000000, 0.000000)
    velocity:         (0.322515, 0.615929, -0.189249)
    angular velocity: (4.519649, -2.061627, 3.847192)
    orientation:      (w=-0.359588, i=0.051064, j=-0.053729, k=-0.930162)
  Body  2
    density:          0.100000
    shape axes ratio: (1.000000, 0.700000, 0.700000)
    initial KE ratio: 30.000000
    position:         (5.500000, 0.000000, 0.000000)
    velocity:         (0.346590, 0.661906, -0.203376)
    angular velocity: (2.393476, -5.791925, -0.450886)
    orientation:      (w=0.119616, i=-0.371982, j=0.367666, k=0.843886)

Preparing first step: implicit scheme, no bootstrap passes required.
First step may take longer than later steps.

First step completed in 0.306 s.

Step   100/2000    5.0% | t 5.000 | ETA 6m 7s | step 0.21s | KE 12.9396 | drift +0.09% | fluid 5.7640 | solid 7.1756
  Impulse FP iterations last/mean/max 16/15.35/17
Step   200/2000   10.0% | t 10.000 | ETA 5m 52s | step 0.20s | KE 12.9635 | drift +0.27% | fluid 5.8317 | solid 7.1318
  Impulse FP iterations last/mean/max 15/15.40/17
Step   300/2000   15.0% | t 15.000 | ETA 5m 27s | step 0.18s | KE 12.9283 | drift -0.00% | fluid 5.8529 | solid 7.0754
  Impulse FP iterations last/mean/max 14/15.42/17
Step   400/2000   20.0% | t 20.000 | ETA 5m 5s | step 0.16s | KE 12.7371 | drift -1.48% | fluid 5.8120 | solid 6.9251
  Impulse FP iterations last/mean/max 14/15.46/17
Step   500/2000   25.0% | t 25.000 | ETA 4m 43s | step 0.19s | KE 12.3549 | drift -4.44% | fluid 5.6809 | solid 6.6739
  Impulse FP iterations last/mean/max 16/15.50/17
Step   600/2000   30.0% | t 30.000 | ETA 4m 24s | step 0.18s | KE 11.9686 | drift -7.42% | fluid 5.4815 | solid 6.4871
  Impulse FP iterations last/mean/max 15/15.51/17
Step   700/2000   35.0% | t 35.000 | ETA 4m 6s | step 0.22s | KE 11.7919 | drift -8.79% | fluid 5.4537 | solid 6.3383
  Impulse FP iterations last/mean/max 16/15.52/17
Step   800/2000   40.0% | t 40.000 | ETA 3m 48s | step 0.21s | KE 11.7662 | drift -8.99% | fluid 5.4945 | solid 6.2717
  Impulse FP iterations last/mean/max 16/15.54/17
Step   900/2000   45.0% | t 45.000 | ETA 3m 29s | step 0.20s | KE 11.7988 | drift -8.74% | fluid 5.6220 | solid 6.1768
  Impulse FP iterations last/mean/max 16/15.54/17
Step  1000/2000   50.0% | t 50.000 | ETA 3m 10s | step 0.22s | KE 11.8080 | drift -8.67% | fluid 5.6101 | solid 6.1978
  Impulse FP iterations last/mean/max 16/15.54/17
Step  1100/2000   55.0% | t 55.000 | ETA 2m 51s | step 0.16s | KE 11.7689 | drift -8.97% | fluid 5.6251 | solid 6.1438
  Impulse FP iterations last/mean/max 14/15.54/17
Step  1200/2000   60.0% | t 60.000 | ETA 2m 31s | step 0.18s | KE 11.7037 | drift -9.47% | fluid 5.6221 | solid 6.0816
  Impulse FP iterations last/mean/max 16/15.54/17
Step  1300/2000   65.0% | t 65.000 | ETA 2m 11s | step 0.18s | KE 11.6018 | drift -10.26% | fluid 5.6470 | solid 5.9548
  Impulse FP iterations last/mean/max 16/15.52/17
Step  1400/2000   70.0% | t 70.000 | ETA 1m 52s | step 0.18s | KE 11.4888 | drift -11.13% | fluid 5.5664 | solid 5.9224
  Impulse FP iterations last/mean/max 16/15.53/17
Step  1500/2000   75.0% | t 75.000 | ETA 1m 33s | step 0.21s | KE 11.4133 | drift -11.72% | fluid 5.5336 | solid 5.8797
  Impulse FP iterations last/mean/max 15/15.51/17
Step  1600/2000   80.0% | t 80.000 | ETA 1m 14s | step 0.18s | KE 11.4394 | drift -11.52% | fluid 5.5042 | solid 5.9352
  Impulse FP iterations last/mean/max 15/15.50/17
Step  1700/2000   85.0% | t 85.000 | ETA 56s | step 0.20s | KE 11.5524 | drift -10.64% | fluid 5.5506 | solid 6.0017
  Impulse FP iterations last/mean/max 15/15.50/17
Step  1800/2000   90.0% | t 90.000 | ETA 37s | step 0.19s | KE 11.7027 | drift -9.48% | fluid 5.5831 | solid 6.1196
  Impulse FP iterations last/mean/max 16/15.50/17
Step  1900/2000   95.0% | t 95.000 | ETA 18s | step 0.18s | KE 11.8308 | drift -8.49% | fluid 5.6193 | solid 6.2115
  Impulse FP iterations last/mean/max 16/15.50/17
Solver finished successfully - good job!
Results saved successfully.

================== Run summary ==================
  Bodies:            2
  Triangles / nodes: 256 / 516
  Timesteps:         2000  (dt = 0.05)
  Simulated time:    0 -> 100
  First-step setup:  0.306 s
  Mean time/step:    0.1871 s  (excl. first step)
  Total wall time:   6m 14s
  Impulse FP iters last/mean/max: 15 / 15.492 / 17
  Approx impulse solves/step:     15.493
  Impulse start cache hits/direct: 1999 / 1
  Impulse global drift P/H:       3.418905e-8 / 9.924174e-3
  Impulse per-body max drift P/H: 6.799060e-8 / 2.138458e-3
  CPU cores:         256 available, 8 Rayon worker thread(s)
  Started:           2026-06-24 02:15:03
  Finished:          2026-06-24 02:21:18
  Output file:       /work/e643/e643/shared/multi_ellip/studies/two_body_paper_sweeps/runs/spheroid_1_0p7_0p7/spheroid_1_0p7_0p7_rho0p1_E30_sep11_run03_impulse_noproj/multiple_body_complete.dat
================================================
