
================ Simulation setup ================
  Run label:         /work/e643/e643/shared/multi_ellip/studies/two_body_paper_sweeps/runs/spheroid_1_0p7_0p7/spheroid_1_0p7_0p7_rho1_E30_sep11_run05_impulse_noproj/
  Started:           2026-06-24 01:39:26
  Input file:        /work/e643/e643/shared/multi_ellip/studies/two_body_paper_sweeps/runs/spheroid_1_0p7_0p7/spheroid_1_0p7_0p7_rho1_E30_sep11_run05_impulse_noproj/input.txt
  Output file:       /work/e643/e643/shared/multi_ellip/studies/two_body_paper_sweeps/runs/spheroid_1_0p7_0p7/spheroid_1_0p7_0p7_rho1_E30_sep11_run05_impulse_noproj/multiple_body_complete.dat
  Bodies:            2
  Fluid density:     1
  Mesh:              ndiv 2 -> 256 triangles / 516 nodes
  Simulated time:    0 -> 100  (dt = 0.05, ~2000 steps)
  Output cadence:    every 1 step(s)
  Output rows:       ~2001
  Progress cadence:  every 100 step(s)
  CPU cores:         256 available, 8 Rayon worker thread(s)
  Strong coupling:   disabled
  Impulse scheme:    enabled
  Hamiltonian step:  disabled
  Hamiltonian midpt: disabled
  Variational step:  disabled
  Energy projection: disabled
  Projection particular metric: Euclidean
  Fluid KE gradient: disabled  (eps = 0.001, scale = 1, linear = 1, angular = 1)
  Fluid KE discrete gradient: disabled
  Impulse pair metric correction: disabled  (mode = pair discrete-gradient, cutoff = all pairs, inner/outer = 0/0, eps = 0.001, linear scale = 1, angular scale = 0)
  Impulse metric correction: disabled  (internal load constraint = disabled)
  Impulse variational defect probe: disabled
  Impulse quadratic pressure: disabled  (scale = 1)
  Added-mass stab:   disabled
  Exact BEM geometry: disabled
  Exact singular BEM: disabled
  Legacy singular SLP diagnostic: disabled
  Phi-dot blend:     0 (off)

  Solver guidance:
    - Strong coupling: use for stiff close-coupled runs; slower but more implicit.
    - Impulse scheme: use when impulse/momentum conservation or KE drift is the focus. Recommended.
    - Added-mass stab: use for higher mesh counts (ndiv > 3) to preserve stability - deprecated.
================================================
Solver starting - good luck!

Initial state:
  Body  1
    density:          1.000000
    shape axes ratio: (1.000000, 0.700000, 0.700000)
    initial KE ratio: 30.000000
    position:         (-5.500000, 0.000000, 0.000000)
    velocity:         (0.397436, 0.215958, -0.595689)
    angular velocity: (-3.615436, 5.124872, -0.377789)
    orientation:      (w=0.605378, i=0.201402, j=-0.746677, k=0.188224)
  Body  2
    density:          1.000000
    shape axes ratio: (1.000000, 0.700000, 0.700000)
    initial KE ratio: 30.000000
    position:         (5.500000, 0.000000, 0.000000)
    velocity:         (0.380050, 0.206511, -0.569630)
    angular velocity: (4.671539, 4.200408, 0.108257)
    orientation:      (w=0.077127, i=0.675907, j=0.475823, k=-0.557489)

Preparing first step: implicit scheme, no bootstrap passes required.
First step may take longer than later steps.

First step completed in 0.297 s.

Step   100/2000    5.0% | t 5.000 | ETA 4m 1s | step 0.12s | KE 87.4179 | drift -0.09% | fluid 7.1627 | solid 80.2552
  Impulse FP iterations last/mean/max 9/8.98/9
Step   200/2000   10.0% | t 10.000 | ETA 3m 50s | step 0.13s | KE 87.3291 | drift -0.19% | fluid 7.2352 | solid 80.0939
  Impulse FP iterations last/mean/max 9/8.99/9
Step   300/2000   15.0% | t 15.000 | ETA 3m 37s | step 0.14s | KE 87.2444 | drift -0.29% | fluid 7.2582 | solid 79.9862
  Impulse FP iterations last/mean/max 9/8.99/9
Step   400/2000   20.0% | t 20.000 | ETA 3m 24s | step 0.13s | KE 87.1693 | drift -0.37% | fluid 7.1881 | solid 79.9813
  Impulse FP iterations last/mean/max 9/8.98/9
Step   500/2000   25.0% | t 25.000 | ETA 3m 12s | step 0.12s | KE 87.0888 | drift -0.47% | fluid 7.2066 | solid 79.8822
  Impulse FP iterations last/mean/max 9/8.99/9
Step   600/2000   30.0% | t 30.000 | ETA 2m 59s | step 0.12s | KE 87.0089 | drift -0.56% | fluid 7.2294 | solid 79.7795
  Impulse FP iterations last/mean/max 9/8.99/9
Step   700/2000   35.0% | t 35.000 | ETA 2m 46s | step 0.13s | KE 86.9446 | drift -0.63% | fluid 7.1289 | solid 79.8157
  Impulse FP iterations last/mean/max 9/8.99/9
Step   800/2000   40.0% | t 40.000 | ETA 2m 32s | step 0.12s | KE 86.8810 | drift -0.70% | fluid 7.1205 | solid 79.7605
  Impulse FP iterations last/mean/max 9/8.99/9
Step   900/2000   45.0% | t 45.000 | ETA 2m 17s | step 0.12s | KE 86.8165 | drift -0.78% | fluid 7.2000 | solid 79.6165
  Impulse FP iterations last/mean/max 9/8.99/9
Step  1000/2000   50.0% | t 50.000 | ETA 2m 4s | step 0.10s | KE 86.7698 | drift -0.83% | fluid 7.1484 | solid 79.6214
  Impulse FP iterations last/mean/max 9/8.99/9
Step  1100/2000   55.0% | t 55.000 | ETA 1m 51s | step 0.12s | KE 86.7258 | drift -0.88% | fluid 7.1329 | solid 79.5928
  Impulse FP iterations last/mean/max 9/8.99/9
Step  1200/2000   60.0% | t 60.000 | ETA 1m 39s | step 0.12s | KE 86.6787 | drift -0.93% | fluid 7.1873 | solid 79.4915
  Impulse FP iterations last/mean/max 9/8.99/9
Step  1300/2000   65.0% | t 65.000 | ETA 1m 27s | step 0.12s | KE 86.6489 | drift -0.97% | fluid 7.1049 | solid 79.5440
  Impulse FP iterations last/mean/max 9/8.99/9
Step  1400/2000   70.0% | t 70.000 | ETA 1m 15s | step 0.13s | KE 86.6205 | drift -1.00% | fluid 7.0978 | solid 79.5227
  Impulse FP iterations last/mean/max 9/8.99/9
Step  1500/2000   75.0% | t 75.000 | ETA 1m 2s | step 0.12s | KE 86.5892 | drift -1.04% | fluid 7.1990 | solid 79.3903
  Impulse FP iterations last/mean/max 9/8.99/9
Step  1600/2000   80.0% | t 80.000 | ETA 50s | step 0.13s | KE 86.5742 | drift -1.05% | fluid 7.1612 | solid 79.4131
  Impulse FP iterations last/mean/max 9/8.99/9
Step  1700/2000   85.0% | t 85.000 | ETA 37s | step 0.12s | KE 86.5567 | drift -1.07% | fluid 7.1760 | solid 79.3807
  Impulse FP iterations last/mean/max 9/8.99/9
Step  1800/2000   90.0% | t 90.000 | ETA 25s | step 0.13s | KE 86.5361 | drift -1.10% | fluid 7.2376 | solid 79.2985
  Impulse FP iterations last/mean/max 9/8.99/9
Step  1900/2000   95.0% | t 95.000 | ETA 12s | step 0.13s | KE 86.5303 | drift -1.10% | fluid 7.1575 | solid 79.3728
  Impulse FP iterations last/mean/max 9/8.99/9
Solver finished successfully - good job!
Results saved successfully.

================== Run summary ==================
  Bodies:            2
  Triangles / nodes: 256 / 516
  Timesteps:         2000  (dt = 0.05)
  Simulated time:    0 -> 100
  First-step setup:  0.297 s
  Mean time/step:    0.1261 s  (excl. first step)
  Total wall time:   4m 12s
  Impulse FP iters last/mean/max: 9 / 8.988 / 9
  Approx impulse solves/step:     8.989
  Impulse start cache hits/direct: 1999 / 1
  Impulse global drift P/H:       1.708527e-7 / 6.292247e-3
  Impulse per-body max drift P/H: 2.197960e-7 / 4.485175e-3
  CPU cores:         256 available, 8 Rayon worker thread(s)
  Started:           2026-06-24 01:39:26
  Finished:          2026-06-24 01:43:38
  Output file:       /work/e643/e643/shared/multi_ellip/studies/two_body_paper_sweeps/runs/spheroid_1_0p7_0p7/spheroid_1_0p7_0p7_rho1_E30_sep11_run05_impulse_noproj/multiple_body_complete.dat
================================================
