
================ Simulation setup ================
  Run label:         /work/e643/e643/shared/multi_ellip/studies/two_body_paper_sweeps/runs/ellipsoid_1_0p8_0p6/ellipsoid_1_0p8_0p6_rho0p3_E0p55_sep8_run05_impulse_noproj/
  Started:           2026-06-24 01:51:03
  Input file:        /work/e643/e643/shared/multi_ellip/studies/two_body_paper_sweeps/runs/ellipsoid_1_0p8_0p6/ellipsoid_1_0p8_0p6_rho0p3_E0p55_sep8_run05_impulse_noproj/input.txt
  Output file:       /work/e643/e643/shared/multi_ellip/studies/two_body_paper_sweeps/runs/ellipsoid_1_0p8_0p6/ellipsoid_1_0p8_0p6_rho0p3_E0p55_sep8_run05_impulse_noproj/multiple_body_complete.dat
  Bodies:            2
  Fluid density:     1
  Mesh:              ndiv 2 -> 256 triangles / 516 nodes
  Simulated time:    0 -> 100  (dt = 0.05, ~2000 steps)
  Output cadence:    every 1 step(s)
  Output rows:       ~2001
  Progress cadence:  every 100 step(s)
  CPU cores:         256 available, 8 Rayon worker thread(s)
  Strong coupling:   disabled
  Impulse scheme:    enabled
  Hamiltonian step:  disabled
  Hamiltonian midpt: disabled
  Variational step:  disabled
  Energy projection: disabled
  Projection particular metric: Euclidean
  Fluid KE gradient: disabled  (eps = 0.001, scale = 1, linear = 1, angular = 1)
  Fluid KE discrete gradient: disabled
  Impulse pair metric correction: disabled  (mode = pair discrete-gradient, cutoff = all pairs, inner/outer = 0/0, eps = 0.001, linear scale = 1, angular scale = 0)
  Impulse metric correction: disabled  (internal load constraint = disabled)
  Impulse variational defect probe: disabled
  Impulse quadratic pressure: disabled  (scale = 1)
  Added-mass stab:   disabled
  Exact BEM geometry: disabled
  Exact singular BEM: disabled
  Legacy singular SLP diagnostic: disabled
  Phi-dot blend:     0 (off)

  Solver guidance:
    - Strong coupling: use for stiff close-coupled runs; slower but more implicit.
    - Impulse scheme: use when impulse/momentum conservation or KE drift is the focus. Recommended.
    - Added-mass stab: use for higher mesh counts (ndiv > 3) to preserve stability - deprecated.
================================================
Solver starting - good luck!

Initial state:
  Body  1
    density:          0.300000
    shape axes ratio: (1.000000, 0.800000, 0.600000)
    initial KE ratio: 0.550000
    position:         (-4.000000, 0.000000, 0.000000)
    velocity:         (2.314590, 4.018287, 2.548537)
    angular velocity: (4.485040, -4.082918, 1.640920)
    orientation:      (w=-0.264124, i=-0.225484, j=-0.740797, k=-0.574991)
  Body  2
    density:          0.300000
    shape axes ratio: (1.000000, 0.800000, 0.600000)
    initial KE ratio: 0.550000
    position:         (4.000000, 0.000000, 0.000000)
    velocity:         (2.409929, 4.183801, 2.653513)
    angular velocity: (4.399808, -2.056008, 3.986595)
    orientation:      (w=-0.850003, i=-0.139309, j=0.497062, k=0.104964)

Preparing first step: implicit scheme, no bootstrap passes required.
First step may take longer than later steps.

First step completed in 0.349 s.

Step   100/2000    5.0% | t 5.000 | ETA 6m 30s | step 0.21s | KE 135.7006 | drift +3.53% | fluid 79.7677 | solid 55.9329
  Impulse FP iterations last/mean/max 14/14.49/17
Step   200/2000   10.0% | t 10.000 | ETA 6m 12s | step 0.22s | KE 143.5733 | drift +9.54% | fluid 79.7933 | solid 63.7800
  Impulse FP iterations last/mean/max 15/14.51/17
Step   300/2000   15.0% | t 15.000 | ETA 5m 53s | step 0.20s | KE 156.4191 | drift +19.34% | fluid 82.1978 | solid 74.2213
  Impulse FP iterations last/mean/max 14/14.55/17
Step   400/2000   20.0% | t 20.000 | ETA 5m 35s | step 0.20s | KE 255.8015 | drift +95.16% | fluid 97.8078 | solid 157.9937
  Impulse FP iterations last/mean/max 15/14.66/17
Step   500/2000   25.0% | t 25.000 | ETA 5m 16s | step 0.22s | KE 299.3041 | drift +128.35% | fluid 107.9409 | solid 191.3632
  Impulse FP iterations last/mean/max 15/14.77/17
Step   600/2000   30.0% | t 30.000 | ETA 4m 55s | step 0.21s | KE 283.1036 | drift +115.99% | fluid 104.8685 | solid 178.2351
  Impulse FP iterations last/mean/max 14/14.81/17
Step   700/2000   35.0% | t 35.000 | ETA 4m 35s | step 0.20s | KE 278.0459 | drift +112.13% | fluid 104.5492 | solid 173.4967
  Impulse FP iterations last/mean/max 15/14.84/17
Step   800/2000   40.0% | t 40.000 | ETA 4m 13s | step 0.20s | KE 265.7329 | drift +102.73% | fluid 99.0439 | solid 166.6890
  Impulse FP iterations last/mean/max 15/14.85/17
Step   900/2000   45.0% | t 45.000 | ETA 3m 52s | step 0.21s | KE 270.4473 | drift +106.33% | fluid 103.6748 | solid 166.7725
  Impulse FP iterations last/mean/max 15/14.86/17
Step  1000/2000   50.0% | t 50.000 | ETA 3m 31s | step 0.20s | KE 273.0980 | drift +108.35% | fluid 103.7465 | solid 169.3515
  Impulse FP iterations last/mean/max 14/14.87/17
Step  1100/2000   55.0% | t 55.000 | ETA 3m 10s | step 0.21s | KE 270.3637 | drift +106.27% | fluid 99.5897 | solid 170.7740
  Impulse FP iterations last/mean/max 15/14.87/17
Step  1200/2000   60.0% | t 60.000 | ETA 2m 48s | step 0.22s | KE 269.9665 | drift +105.96% | fluid 100.7451 | solid 169.2214
  Impulse FP iterations last/mean/max 15/14.88/17
Step  1300/2000   65.0% | t 65.000 | ETA 2m 27s | step 0.21s | KE 276.0460 | drift +110.60% | fluid 106.9424 | solid 169.1037
  Impulse FP iterations last/mean/max 15/14.87/17
Step  1400/2000   70.0% | t 70.000 | ETA 2m 5s | step 0.18s | KE 266.6481 | drift +103.43% | fluid 103.5313 | solid 163.1168
  Impulse FP iterations last/mean/max 15/14.87/17
Step  1500/2000   75.0% | t 75.000 | ETA 1m 43s | step 0.21s | KE 275.3737 | drift +110.09% | fluid 105.8929 | solid 169.4808
  Impulse FP iterations last/mean/max 17/14.88/17
Step  1600/2000   80.0% | t 80.000 | ETA 1m 22s | step 0.19s | KE 266.3679 | drift +103.22% | fluid 101.5821 | solid 164.7858
  Impulse FP iterations last/mean/max 15/14.88/17
Step  1700/2000   85.0% | t 85.000 | ETA 1m 1s | step 0.20s | KE 275.3102 | drift +110.04% | fluid 106.3448 | solid 168.9654
  Impulse FP iterations last/mean/max 15/14.88/17
Step  1800/2000   90.0% | t 90.000 | ETA 41s | step 0.21s | KE 267.4283 | drift +104.03% | fluid 101.1166 | solid 166.3117
  Impulse FP iterations last/mean/max 15/14.89/17
Step  1900/2000   95.0% | t 95.000 | ETA 20s | step 0.22s | KE 274.3114 | drift +109.28% | fluid 101.8540 | solid 172.4573
  Impulse FP iterations last/mean/max 16/14.89/17
Solver finished successfully - good job!
Results saved successfully.

================== Run summary ==================
  Bodies:            2
  Triangles / nodes: 256 / 516
  Timesteps:         2000  (dt = 0.05)
  Simulated time:    0 -> 100
  First-step setup:  0.349 s
  Mean time/step:    0.2059 s  (excl. first step)
  Total wall time:   6m 51s
  Impulse FP iters last/mean/max: 15 / 14.890 / 17
  Approx impulse solves/step:     14.891
  Impulse start cache hits/direct: 1999 / 1
  Impulse global drift P/H:       2.946629e-8 / 6.489151e-1
  Impulse per-body max drift P/H: 3.858312e-8 / 9.322920e-2
  CPU cores:         256 available, 8 Rayon worker thread(s)
  Started:           2026-06-24 01:51:03
  Finished:          2026-06-24 01:57:55
  Output file:       /work/e643/e643/shared/multi_ellip/studies/two_body_paper_sweeps/runs/ellipsoid_1_0p8_0p6/ellipsoid_1_0p8_0p6_rho0p3_E0p55_sep8_run05_impulse_noproj/multiple_body_complete.dat
================================================
