
================ Simulation setup ================
  Run label:         /work/e643/e643/shared/multi_ellip/studies/two_body_paper_sweeps/runs/spheroid_1_0p7_0p7/spheroid_1_0p7_0p7_rho4_E30_sep11_run02_impulse_noproj/
  Started:           2026-06-22 19:30:33
  Input file:        /work/e643/e643/shared/multi_ellip/studies/two_body_paper_sweeps/runs/spheroid_1_0p7_0p7/spheroid_1_0p7_0p7_rho4_E30_sep11_run02_impulse_noproj/input.txt
  Output file:       /work/e643/e643/shared/multi_ellip/studies/two_body_paper_sweeps/runs/spheroid_1_0p7_0p7/spheroid_1_0p7_0p7_rho4_E30_sep11_run02_impulse_noproj/multiple_body_complete.dat
  Bodies:            2
  Fluid density:     1
  Mesh:              ndiv 2 -> 256 triangles / 516 nodes
  Simulated time:    0 -> 100  (dt = 0.05, ~2000 steps)
  Output cadence:    every 1 step(s)
  Output rows:       ~2001
  Progress cadence:  every 100 step(s)
  CPU cores:         256 available, 8 Rayon worker thread(s)
  Strong coupling:   disabled
  Impulse scheme:    enabled
  Hamiltonian step:  disabled
  Hamiltonian midpt: disabled
  Variational step:  disabled
  Energy projection: disabled
  Projection particular metric: Euclidean
  Fluid KE gradient: disabled  (eps = 0.001, scale = 1, linear = 1, angular = 1)
  Fluid KE discrete gradient: disabled
  Impulse pair metric correction: disabled  (mode = pair discrete-gradient, cutoff = all pairs, inner/outer = 0/0, eps = 0.001, linear scale = 1, angular scale = 0)
  Impulse metric correction: disabled  (internal load constraint = disabled)
  Impulse variational defect probe: disabled
  Impulse quadratic pressure: disabled  (scale = 1)
  Added-mass stab:   disabled
  Exact BEM geometry: disabled
  Exact singular BEM: disabled
  Legacy singular SLP diagnostic: disabled
  Phi-dot blend:     0 (off)

  Solver guidance:
    - Strong coupling: use for stiff close-coupled runs; slower but more implicit.
    - Impulse scheme: use when impulse/momentum conservation or KE drift is the focus. Recommended.
    - Added-mass stab: use for higher mesh counts (ndiv > 3) to preserve stability - deprecated.
================================================
Solver starting - good luck!

Initial state:
  Body  1
    density:          4.000000
    shape axes ratio: (1.000000, 0.700000, 0.700000)
    initial KE ratio: 30.000000
    position:         (-5.500000, 0.000000, 0.000000)
    velocity:         (-0.236511, -0.479055, -0.533319)
    angular velocity: (-3.341612, -4.730487, 2.436092)
    orientation:      (w=0.577350, i=0.577350, j=0.577350, k=0.000000)
  Body  2
    density:          4.000000
    shape axes ratio: (1.000000, 0.700000, 0.700000)
    initial KE ratio: 30.000000
    position:         (5.500000, 0.000000, 0.000000)
    velocity:         (-0.215349, -0.436191, -0.485599)
    angular velocity: (5.382785, 3.183947, -0.605412)
    orientation:      (w=0.577350, i=-0.577350, j=0.000000, k=0.577350)

Preparing first step: implicit scheme, no bootstrap passes required.
First step may take longer than later steps.

First step completed in 0.339 s.

Step   100/2000    5.0% | t 5.000 | ETA 3m 27s | step 0.10s | KE 256.0406 | drift -0.01% | fluid 3.1343 | solid 252.9063
  Impulse FP iterations last/mean/max 7/7.60/8
Step   200/2000   10.0% | t 10.000 | ETA 3m 13s | step 0.11s | KE 256.0134 | drift -0.02% | fluid 3.4713 | solid 252.5421
  Impulse FP iterations last/mean/max 8/7.58/8
Step   300/2000   15.0% | t 15.000 | ETA 3m 3s | step 0.12s | KE 255.9966 | drift -0.02% | fluid 3.3734 | solid 252.6232
  Impulse FP iterations last/mean/max 8/7.62/8
Step   400/2000   20.0% | t 20.000 | ETA 2m 53s | step 0.12s | KE 255.9715 | drift -0.03% | fluid 3.5517 | solid 252.4198
  Impulse FP iterations last/mean/max 8/7.62/8
Step   500/2000   25.0% | t 25.000 | ETA 2m 42s | step 0.10s | KE 255.9583 | drift -0.04% | fluid 3.2082 | solid 252.7501
  Impulse FP iterations last/mean/max 7/7.62/8
Step   600/2000   30.0% | t 30.000 | ETA 2m 31s | step 0.12s | KE 255.9358 | drift -0.05% | fluid 3.4441 | solid 252.4917
  Impulse FP iterations last/mean/max 8/7.61/8
Step   700/2000   35.0% | t 35.000 | ETA 2m 21s | step 0.11s | KE 255.9219 | drift -0.05% | fluid 3.4513 | solid 252.4706
  Impulse FP iterations last/mean/max 8/7.62/8
Step   800/2000   40.0% | t 40.000 | ETA 2m 10s | step 0.10s | KE 255.9030 | drift -0.06% | fluid 3.5113 | solid 252.3917
  Impulse FP iterations last/mean/max 8/7.62/8
Step   900/2000   45.0% | t 45.000 | ETA 1m 59s | step 0.10s | KE 255.8931 | drift -0.06% | fluid 3.2830 | solid 252.6101
  Impulse FP iterations last/mean/max 7/7.63/8
Step  1000/2000   50.0% | t 50.000 | ETA 1m 48s | step 0.12s | KE 255.8776 | drift -0.07% | fluid 3.3822 | solid 252.4954
  Impulse FP iterations last/mean/max 8/7.62/8
Step  1100/2000   55.0% | t 55.000 | ETA 1m 37s | step 0.11s | KE 255.8674 | drift -0.07% | fluid 3.5118 | solid 252.3556
  Impulse FP iterations last/mean/max 8/7.63/8
Step  1200/2000   60.0% | t 60.000 | ETA 1m 26s | step 0.09s | KE 255.8557 | drift -0.08% | fluid 3.4337 | solid 252.4220
  Impulse FP iterations last/mean/max 7/7.63/8
Step  1300/2000   65.0% | t 65.000 | ETA 1m 14s | step 0.10s | KE 255.8494 | drift -0.08% | fluid 3.3249 | solid 252.5246
  Impulse FP iterations last/mean/max 7/7.63/8
Step  1400/2000   70.0% | t 70.000 | ETA 1m 4s | step 0.10s | KE 255.8407 | drift -0.08% | fluid 3.2963 | solid 252.5443
  Impulse FP iterations last/mean/max 7/7.63/8
Step  1500/2000   75.0% | t 75.000 | ETA 53s | step 0.11s | KE 255.8341 | drift -0.09% | fluid 3.5349 | solid 252.2992
  Impulse FP iterations last/mean/max 8/7.63/8
Step  1600/2000   80.0% | t 80.000 | ETA 42s | step 0.10s | KE 255.8284 | drift -0.09% | fluid 3.3530 | solid 252.4755
  Impulse FP iterations last/mean/max 7/7.63/8
Step  1700/2000   85.0% | t 85.000 | ETA 32s | step 0.12s | KE 255.8254 | drift -0.09% | fluid 3.3334 | solid 252.4920
  Impulse FP iterations last/mean/max 8/7.63/8
Step  1800/2000   90.0% | t 90.000 | ETA 21s | step 0.10s | KE 255.8214 | drift -0.09% | fluid 3.2389 | solid 252.5825
  Impulse FP iterations last/mean/max 7/7.63/8
Step  1900/2000   95.0% | t 95.000 | ETA 10s | step 0.10s | KE 255.8181 | drift -0.09% | fluid 3.5368 | solid 252.2813
  Impulse FP iterations last/mean/max 8/7.63/8
Solver finished successfully - good job!
Results saved successfully.

================== Run summary ==================
  Bodies:            2
  Triangles / nodes: 256 / 516
  Timesteps:         2000  (dt = 0.05)
  Simulated time:    0 -> 100
  First-step setup:  0.339 s
  Mean time/step:    0.1060 s  (excl. first step)
  Total wall time:   3m 32s
  Impulse FP iters last/mean/max: 7 / 7.625 / 8
  Approx impulse solves/step:     7.626
  Impulse start cache hits/direct: 1999 / 1
  Impulse global drift P/H:       3.959454e-9 / 1.578686e-2
  Impulse per-body max drift P/H: 1.406374e-8 / 4.353389e-3
  CPU cores:         256 available, 8 Rayon worker thread(s)
  Started:           2026-06-22 19:30:33
  Finished:          2026-06-22 19:34:05
  Output file:       /work/e643/e643/shared/multi_ellip/studies/two_body_paper_sweeps/runs/spheroid_1_0p7_0p7/spheroid_1_0p7_0p7_rho4_E30_sep11_run02_impulse_noproj/multiple_body_complete.dat
================================================
