
================ Simulation setup ================
  Run label:         /work/e643/e643/shared/multi_ellip/studies/two_body_paper_sweeps/runs/ellipsoid_1_0p8_0p6/ellipsoid_1_0p8_0p6_rho0p3_E0p2_sep3_run01_impulse_noproj/
  Started:           2026-06-22 19:40:05
  Input file:        /work/e643/e643/shared/multi_ellip/studies/two_body_paper_sweeps/runs/ellipsoid_1_0p8_0p6/ellipsoid_1_0p8_0p6_rho0p3_E0p2_sep3_run01_impulse_noproj/input.txt
  Output file:       /work/e643/e643/shared/multi_ellip/studies/two_body_paper_sweeps/runs/ellipsoid_1_0p8_0p6/ellipsoid_1_0p8_0p6_rho0p3_E0p2_sep3_run01_impulse_noproj/multiple_body_complete.dat
  Bodies:            2
  Fluid density:     1
  Mesh:              ndiv 2 -> 256 triangles / 516 nodes
  Simulated time:    0 -> 100  (dt = 0.05, ~2000 steps)
  Output cadence:    every 1 step(s)
  Output rows:       ~2001
  Progress cadence:  every 100 step(s)
  CPU cores:         256 available, 8 Rayon worker thread(s)
  Strong coupling:   disabled
  Impulse scheme:    enabled
  Hamiltonian step:  disabled
  Hamiltonian midpt: disabled
  Variational step:  disabled
  Energy projection: disabled
  Projection particular metric: Euclidean
  Fluid KE gradient: disabled  (eps = 0.001, scale = 1, linear = 1, angular = 1)
  Fluid KE discrete gradient: disabled
  Impulse pair metric correction: disabled  (mode = pair discrete-gradient, cutoff = all pairs, inner/outer = 0/0, eps = 0.001, linear scale = 1, angular scale = 0)
  Impulse metric correction: disabled  (internal load constraint = disabled)
  Impulse variational defect probe: disabled
  Impulse quadratic pressure: disabled  (scale = 1)
  Added-mass stab:   disabled
  Exact BEM geometry: disabled
  Exact singular BEM: disabled
  Legacy singular SLP diagnostic: disabled
  Phi-dot blend:     0 (off)

  Solver guidance:
    - Strong coupling: use for stiff close-coupled runs; slower but more implicit.
    - Impulse scheme: use when impulse/momentum conservation or KE drift is the focus. Recommended.
    - Added-mass stab: use for higher mesh counts (ndiv > 3) to preserve stability - deprecated.
================================================
Solver starting - good luck!

Initial state:
  Body  1
    density:          0.300000
    shape axes ratio: (1.000000, 0.800000, 0.600000)
    initial KE ratio: 0.200000
    position:         (-1.500000, 0.000000, 0.000000)
    velocity:         (-2.340913, 7.117655, 6.738046)
    angular velocity: (-1.126369, 2.451287, -5.674584)
    orientation:      (w=0.447214, i=0.894427, j=0.000000, k=0.000000)
  Body  2
    density:          0.300000
    shape axes ratio: (1.000000, 0.800000, 0.600000)
    initial KE ratio: 0.200000
    position:         (1.500000, 0.000000, 0.000000)
    velocity:         (-2.342391, 7.122147, 6.742298)
    angular velocity: (-1.838142, -0.951375, -5.932499)
    orientation:      (w=0.707107, i=0.000000, j=0.707107, k=0.000000)

Preparing first step: implicit scheme, no bootstrap passes required.
First step may take longer than later steps.

First step completed in 0.329 s.

Step   100/2000    5.0% | t 5.000 | ETA 7m 43s | step 0.27s | KE 2400.8032 | drift +444.07% | fluid 552.9129 | solid 1847.8903
  Impulse FP iterations last/mean/max 19/17.45/19
Step   200/2000   10.0% | t 10.000 | ETA 7m 13s | step 0.24s | KE 2698.2222 | drift +511.48% | fluid 1033.2360 | solid 1664.9862
  Impulse FP iterations last/mean/max 18/17.57/19
Step   300/2000   15.0% | t 15.000 | ETA 6m 47s | step 0.24s | KE 1822.1716 | drift +312.94% | fluid 784.5938 | solid 1037.5778
  Impulse FP iterations last/mean/max 18/17.60/19
Step   400/2000   20.0% | t 20.000 | ETA 6m 23s | step 0.25s | KE 2340.3740 | drift +430.38% | fluid 988.6718 | solid 1351.7022
  Impulse FP iterations last/mean/max 18/17.61/20
Step   500/2000   25.0% | t 25.000 | ETA 5m 59s | step 0.24s | KE 2118.1425 | drift +380.02% | fluid 608.0013 | solid 1510.1412
  Impulse FP iterations last/mean/max 18/17.65/21
Step   600/2000   30.0% | t 30.000 | ETA 5m 34s | step 0.23s | KE 2857.6504 | drift +547.60% | fluid 538.5991 | solid 2319.0514
  Impulse FP iterations last/mean/max 17/17.65/21
Step   700/2000   35.0% | t 35.000 | ETA 5m 10s | step 0.26s | KE 2992.4304 | drift +578.15% | fluid 1184.6691 | solid 1807.7613
  Impulse FP iterations last/mean/max 19/17.68/21
Solver stopped with error: Non-finite state detected at x = 38.749999999999936: position[0] = NaN.
