
================ Simulation setup ================
  Run label:         /work/e643/e643/shared/multi_ellip/studies/departing_sphericity_sweep/runs/triaxial/heterogeneous_sphere/triaxial_heterogeneous_sphere_eps0p003_rho1_E0p5_sep8_run07_impulse_noproj/
  Started:           2026-06-24 02:43:21
  Input file:        /work/e643/e643/shared/multi_ellip/studies/departing_sphericity_sweep/runs/triaxial/heterogeneous_sphere/triaxial_heterogeneous_sphere_eps0p003_rho1_E0p5_sep8_run07_impulse_noproj/input.txt
  Output file:       /work/e643/e643/shared/multi_ellip/studies/departing_sphericity_sweep/runs/triaxial/heterogeneous_sphere/triaxial_heterogeneous_sphere_eps0p003_rho1_E0p5_sep8_run07_impulse_noproj/multiple_body_complete.dat
  Bodies:            2
  Fluid density:     1
  Mesh:              ndiv 2 -> 256 triangles / 516 nodes
  Simulated time:    0 -> 100  (dt = 0.05, ~2000 steps)
  Output cadence:    every 1 step(s)
  Output rows:       ~2001
  Progress cadence:  every 100 step(s)
  CPU cores:         256 available, 8 Rayon worker thread(s)
  Strong coupling:   disabled
  Impulse scheme:    enabled
  Hamiltonian step:  disabled
  Hamiltonian midpt: disabled
  Variational step:  disabled
  Energy projection: disabled
  Projection particular metric: Euclidean
  Fluid KE gradient: disabled  (eps = 0.001, scale = 1, linear = 1, angular = 1)
  Fluid KE discrete gradient: disabled
  Impulse pair metric correction: disabled  (mode = pair discrete-gradient, cutoff = all pairs, inner/outer = 0/0, eps = 0.001, linear scale = 1, angular scale = 0)
  Impulse metric correction: disabled  (internal load constraint = disabled)
  Impulse variational defect probe: disabled
  Impulse quadratic pressure: disabled  (scale = 1)
  Added-mass stab:   disabled
  Exact BEM geometry: disabled
  Exact singular BEM: disabled
  Legacy singular SLP diagnostic: disabled
  Phi-dot blend:     0 (off)

  Solver guidance:
    - Strong coupling: use for stiff close-coupled runs; slower but more implicit.
    - Impulse scheme: use when impulse/momentum conservation or KE drift is the focus. Recommended.
    - Added-mass stab: use for higher mesh counts (ndiv > 3) to preserve stability - deprecated.
================================================
Solver starting - good luck!

Initial state:
  Body  1
    density:          1.000000
    shape axes ratio: (1.000000, 0.997009, 0.994027)
    initial KE ratio: 0.500000
    position:         (-4.000000, 0.000000, 0.000000)
    velocity:         (0.592102, 4.484969, 3.335335)
    angular velocity: (-4.107785, 1.682364, -4.446816)
    orientation:      (w=-0.532917, i=-0.244855, j=-0.126663, k=-0.800001)
  Body  2
    density:          1.000000
    shape axes ratio: (1.000000, 1.000000, 1.000000)
    initial KE ratio: 0.500000
    position:         (4.000000, 0.000000, 0.000000)
    velocity:         (0.592034, 4.484454, 3.334952)
    angular velocity: (1.524541, -1.412972, -5.929393)
    orientation:      (w=0.890000, i=0.278572, j=0.326992, k=0.152884)

Preparing first step: implicit scheme, no bootstrap passes required.
First step may take longer than later steps.

First step completed in 0.287 s.

Step   100/2000    5.0% | t 5.000 | ETA 3m 13s | step 0.11s | KE 274.0495 | drift +1.10% | fluid 72.5295 | solid 201.5199
  Impulse FP iterations last/mean/max 8/7.29/8
Step   200/2000   10.0% | t 10.000 | ETA 3m 4s | step 0.10s | KE 277.1268 | drift +2.24% | fluid 72.5582 | solid 204.5687
  Impulse FP iterations last/mean/max 7/7.30/8
Step   300/2000   15.0% | t 15.000 | ETA 2m 53s | step 0.10s | KE 280.3135 | drift +3.41% | fluid 72.4962 | solid 207.8173
  Impulse FP iterations last/mean/max 7/7.28/8
Step   400/2000   20.0% | t 20.000 | ETA 2m 43s | step 0.11s | KE 283.5926 | drift +4.62% | fluid 72.5323 | solid 211.0602
  Impulse FP iterations last/mean/max 8/7.27/8
Step   500/2000   25.0% | t 25.000 | ETA 2m 33s | step 0.09s | KE 286.9784 | drift +5.87% | fluid 72.5036 | solid 214.4748
  Impulse FP iterations last/mean/max 7/7.28/8
Step   600/2000   30.0% | t 30.000 | ETA 2m 23s | step 0.11s | KE 290.4681 | drift +7.16% | fluid 72.5301 | solid 217.9380
  Impulse FP iterations last/mean/max 8/7.28/8
Step   700/2000   35.0% | t 35.000 | ETA 2m 13s | step 0.11s | KE 294.0637 | drift +8.48% | fluid 72.5584 | solid 221.5053
  Impulse FP iterations last/mean/max 7/7.27/8
Step   800/2000   40.0% | t 40.000 | ETA 2m 2s | step 0.10s | KE 297.7814 | drift +9.86% | fluid 72.5263 | solid 225.2551
  Impulse FP iterations last/mean/max 7/7.26/8
Step   900/2000   45.0% | t 45.000 | ETA 1m 52s | step 0.10s | KE 301.6159 | drift +11.27% | fluid 72.5074 | solid 229.1085
  Impulse FP iterations last/mean/max 7/7.26/8
Step  1000/2000   50.0% | t 50.000 | ETA 1m 42s | step 0.10s | KE 305.5678 | drift +12.73% | fluid 72.5212 | solid 233.0466
  Impulse FP iterations last/mean/max 7/7.26/8
Step  1100/2000   55.0% | t 55.000 | ETA 1m 31s | step 0.10s | KE 309.6420 | drift +14.23% | fluid 72.5630 | solid 237.0791
  Impulse FP iterations last/mean/max 7/7.25/8
Step  1200/2000   60.0% | t 60.000 | ETA 1m 21s | step 0.10s | KE 313.8617 | drift +15.79% | fluid 72.5221 | solid 241.3396
  Impulse FP iterations last/mean/max 7/7.23/8
Step  1300/2000   65.0% | t 65.000 | ETA 1m 11s | step 0.10s | KE 318.2038 | drift +17.39% | fluid 72.5369 | solid 245.6669
  Impulse FP iterations last/mean/max 7/7.22/8
Step  1400/2000   70.0% | t 70.000 | ETA 1m 1s | step 0.10s | KE 322.6894 | drift +19.05% | fluid 72.5672 | solid 250.1221
  Impulse FP iterations last/mean/max 7/7.21/8
Step  1500/2000   75.0% | t 75.000 | ETA 50s | step 0.10s | KE 327.3278 | drift +20.76% | fluid 72.5419 | solid 254.7859
  Impulse FP iterations last/mean/max 7/7.20/8
Step  1600/2000   80.0% | t 80.000 | ETA 40s | step 0.10s | KE 332.1235 | drift +22.53% | fluid 72.5204 | solid 259.6031
  Impulse FP iterations last/mean/max 7/7.19/8
Step  1700/2000   85.0% | t 85.000 | ETA 30s | step 0.10s | KE 337.0601 | drift +24.35% | fluid 72.5671 | solid 264.4930
  Impulse FP iterations last/mean/max 7/7.18/8
Step  1800/2000   90.0% | t 90.000 | ETA 20s | step 0.10s | KE 342.1820 | drift +26.24% | fluid 72.5118 | solid 269.6701
  Impulse FP iterations last/mean/max 7/7.17/8
Step  1900/2000   95.0% | t 95.000 | ETA 10s | step 0.09s | KE 347.4657 | drift +28.19% | fluid 72.5031 | solid 274.9625
  Impulse FP iterations last/mean/max 7/7.16/8
Solver finished successfully - good job!
Results saved successfully.

================== Run summary ==================
  Bodies:            2
  Triangles / nodes: 256 / 516
  Timesteps:         2000  (dt = 0.05)
  Simulated time:    0 -> 100
  First-step setup:  0.287 s
  Mean time/step:    0.1005 s  (excl. first step)
  Total wall time:   3m 21s
  Impulse FP iters last/mean/max: 7 / 7.151 / 8
  Approx impulse solves/step:     7.151
  Impulse start cache hits/direct: 1999 / 1
  Impulse global drift P/H:       2.067736e-8 / 6.924802e-3
  Impulse per-body max drift P/H: 3.856432e-8 / 7.038038e-4
  CPU cores:         256 available, 8 Rayon worker thread(s)
  Started:           2026-06-24 02:43:21
  Finished:          2026-06-24 02:46:43
  Output file:       /work/e643/e643/shared/multi_ellip/studies/departing_sphericity_sweep/runs/triaxial/heterogeneous_sphere/triaxial_heterogeneous_sphere_eps0p003_rho1_E0p5_sep8_run07_impulse_noproj/multiple_body_complete.dat
================================================
