
================ Simulation setup ================
  Run label:         /work/e643/e643/shared/multi_ellip/studies/two_body_paper_sweeps/runs/ellipsoid_1_0p8_0p6/ellipsoid_1_0p8_0p6_rho0p1_E11_sep8_run03_impulse_noproj/
  Started:           2026-06-24 02:14:41
  Input file:        /work/e643/e643/shared/multi_ellip/studies/two_body_paper_sweeps/runs/ellipsoid_1_0p8_0p6/ellipsoid_1_0p8_0p6_rho0p1_E11_sep8_run03_impulse_noproj/input.txt
  Output file:       /work/e643/e643/shared/multi_ellip/studies/two_body_paper_sweeps/runs/ellipsoid_1_0p8_0p6/ellipsoid_1_0p8_0p6_rho0p1_E11_sep8_run03_impulse_noproj/multiple_body_complete.dat
  Bodies:            2
  Fluid density:     1
  Mesh:              ndiv 2 -> 256 triangles / 516 nodes
  Simulated time:    0 -> 100  (dt = 0.05, ~2000 steps)
  Output cadence:    every 1 step(s)
  Output rows:       ~2001
  Progress cadence:  every 100 step(s)
  CPU cores:         256 available, 8 Rayon worker thread(s)
  Strong coupling:   disabled
  Impulse scheme:    enabled
  Hamiltonian step:  disabled
  Hamiltonian midpt: disabled
  Variational step:  disabled
  Energy projection: disabled
  Projection particular metric: Euclidean
  Fluid KE gradient: disabled  (eps = 0.001, scale = 1, linear = 1, angular = 1)
  Fluid KE discrete gradient: disabled
  Impulse pair metric correction: disabled  (mode = pair discrete-gradient, cutoff = all pairs, inner/outer = 0/0, eps = 0.001, linear scale = 1, angular scale = 0)
  Impulse metric correction: disabled  (internal load constraint = disabled)
  Impulse variational defect probe: disabled
  Impulse quadratic pressure: disabled  (scale = 1)
  Added-mass stab:   disabled
  Exact BEM geometry: disabled
  Exact singular BEM: disabled
  Legacy singular SLP diagnostic: disabled
  Phi-dot blend:     0 (off)

  Solver guidance:
    - Strong coupling: use for stiff close-coupled runs; slower but more implicit.
    - Impulse scheme: use when impulse/momentum conservation or KE drift is the focus. Recommended.
    - Added-mass stab: use for higher mesh counts (ndiv > 3) to preserve stability - deprecated.
================================================
Solver starting - good luck!

Initial state:
  Body  1
    density:          0.100000
    shape axes ratio: (1.000000, 0.800000, 0.600000)
    initial KE ratio: 11.000000
    position:         (-4.000000, 0.000000, 0.000000)
    velocity:         (-0.498354, -0.901270, 0.800328)
    angular velocity: (-0.491863, -5.081637, -3.662439)
    orientation:      (w=-0.211370, i=-0.323309, j=-0.657637, k=0.646767)
  Body  2
    density:          0.100000
    shape axes ratio: (1.000000, 0.800000, 0.600000)
    initial KE ratio: 11.000000
    position:         (4.000000, 0.000000, 0.000000)
    velocity:         (-0.468220, -0.846774, 0.751935)
    angular velocity: (2.995784, 5.466882, -0.785428)
    orientation:      (w=0.477255, i=-0.606461, j=0.631455, k=0.075479)

Preparing first step: implicit scheme, no bootstrap passes required.
First step may take longer than later steps.

First step completed in 0.460 s.

Step   100/2000    5.0% | t 5.000 | ETA 8m 28s | step 0.26s | KE 18.3809 | drift +4.28% | fluid 11.3821 | solid 6.9988
  Impulse FP iterations last/mean/max 18/18.61/21
Step   200/2000   10.0% | t 10.000 | ETA 8m 4s | step 0.27s | KE 18.8676 | drift +7.04% | fluid 11.5259 | solid 7.3417
  Impulse FP iterations last/mean/max 19/18.66/21
Step   300/2000   15.0% | t 15.000 | ETA 7m 37s | step 0.27s | KE 18.7164 | drift +6.18% | fluid 11.6136 | solid 7.1028
  Impulse FP iterations last/mean/max 19/18.66/21
Step   400/2000   20.0% | t 20.000 | ETA 7m 9s | step 0.27s | KE 18.4443 | drift +4.64% | fluid 9.8324 | solid 8.6119
  Impulse FP iterations last/mean/max 19/18.63/21
Step   500/2000   25.0% | t 25.000 | ETA 6m 39s | step 0.29s | KE 18.2071 | drift +3.29% | fluid 11.6287 | solid 6.5784
  Impulse FP iterations last/mean/max 21/18.65/22
Step   600/2000   30.0% | t 30.000 | ETA 6m 9s | step 0.23s | KE 18.0798 | drift +2.57% | fluid 11.1023 | solid 6.9775
  Impulse FP iterations last/mean/max 17/18.67/22
Step   700/2000   35.0% | t 35.000 | ETA 5m 40s | step 0.26s | KE 17.9474 | drift +1.82% | fluid 10.2935 | solid 7.6539
  Impulse FP iterations last/mean/max 19/18.69/22
Step   800/2000   40.0% | t 40.000 | ETA 5m 15s | step 0.27s | KE 17.9768 | drift +1.99% | fluid 9.9706 | solid 8.0062
  Impulse FP iterations last/mean/max 19/18.70/22
Step   900/2000   45.0% | t 45.000 | ETA 4m 49s | step 0.27s | KE 17.9437 | drift +1.80% | fluid 10.1107 | solid 7.8330
  Impulse FP iterations last/mean/max 20/18.68/22
Step  1000/2000   50.0% | t 50.000 | ETA 4m 23s | step 0.26s | KE 18.0125 | drift +2.19% | fluid 10.6273 | solid 7.3852
  Impulse FP iterations last/mean/max 17/18.65/22
Step  1100/2000   55.0% | t 55.000 | ETA 3m 57s | step 0.26s | KE 17.9527 | drift +1.85% | fluid 8.8504 | solid 9.1023
  Impulse FP iterations last/mean/max 18/18.64/22
Step  1200/2000   60.0% | t 60.000 | ETA 3m 31s | step 0.29s | KE 18.0151 | drift +2.20% | fluid 11.1801 | solid 6.8351
  Impulse FP iterations last/mean/max 20/18.63/22
Step  1300/2000   65.0% | t 65.000 | ETA 3m 4s | step 0.26s | KE 17.9737 | drift +1.97% | fluid 11.5951 | solid 6.3786
  Impulse FP iterations last/mean/max 18/18.62/22
Step  1400/2000   70.0% | t 70.000 | ETA 2m 38s | step 0.27s | KE 17.9909 | drift +2.07% | fluid 9.7623 | solid 8.2286
  Impulse FP iterations last/mean/max 18/18.60/22
Step  1500/2000   75.0% | t 75.000 | ETA 2m 12s | step 0.27s | KE 17.9654 | drift +1.92% | fluid 10.5239 | solid 7.4415
  Impulse FP iterations last/mean/max 18/18.61/22
Step  1600/2000   80.0% | t 80.000 | ETA 1m 45s | step 0.26s | KE 18.0051 | drift +2.15% | fluid 10.9297 | solid 7.0753
  Impulse FP iterations last/mean/max 18/18.60/22
Step  1700/2000   85.0% | t 85.000 | ETA 1m 19s | step 0.28s | KE 17.9835 | drift +2.02% | fluid 11.7448 | solid 6.2388
  Impulse FP iterations last/mean/max 19/18.61/22
Step  1800/2000   90.0% | t 90.000 | ETA 53s | step 0.26s | KE 17.9974 | drift +2.10% | fluid 10.8420 | solid 7.1554
  Impulse FP iterations last/mean/max 18/18.61/22
Step  1900/2000   95.0% | t 95.000 | ETA 26s | step 0.25s | KE 17.9972 | drift +2.10% | fluid 9.4079 | solid 8.5893
  Impulse FP iterations last/mean/max 18/18.60/22
Solver finished successfully - good job!
Results saved successfully.

================== Run summary ==================
  Bodies:            2
  Triangles / nodes: 256 / 516
  Timesteps:         2000  (dt = 0.05)
  Simulated time:    0 -> 100
  First-step setup:  0.460 s
  Mean time/step:    0.2645 s  (excl. first step)
  Total wall time:   8m 49s
  Impulse FP iters last/mean/max: 19 / 18.601 / 22
  Approx impulse solves/step:     18.601
  Impulse start cache hits/direct: 1999 / 1
  Impulse global drift P/H:       3.829079e-8 / 5.015368e-3
  Impulse per-body max drift P/H: 5.940788e-8 / 1.242561e-3
  CPU cores:         256 available, 8 Rayon worker thread(s)
  Started:           2026-06-24 02:14:41
  Finished:          2026-06-24 02:23:30
  Output file:       /work/e643/e643/shared/multi_ellip/studies/two_body_paper_sweeps/runs/ellipsoid_1_0p8_0p6/ellipsoid_1_0p8_0p6_rho0p1_E11_sep8_run03_impulse_noproj/multiple_body_complete.dat
================================================
