
================ Simulation setup ================
  Run label:         /work/e643/e643/shared/multi_ellip/studies/two_body_paper_sweeps/runs/ellipsoid_1_0p8_0p6/ellipsoid_1_0p8_0p6_rho10_E0p55_sep8_run02_impulse_noproj/
  Started:           2026-06-22 19:23:16
  Input file:        /work/e643/e643/shared/multi_ellip/studies/two_body_paper_sweeps/runs/ellipsoid_1_0p8_0p6/ellipsoid_1_0p8_0p6_rho10_E0p55_sep8_run02_impulse_noproj/input.txt
  Output file:       /work/e643/e643/shared/multi_ellip/studies/two_body_paper_sweeps/runs/ellipsoid_1_0p8_0p6/ellipsoid_1_0p8_0p6_rho10_E0p55_sep8_run02_impulse_noproj/multiple_body_complete.dat
  Bodies:            2
  Fluid density:     1
  Mesh:              ndiv 2 -> 256 triangles / 516 nodes
  Simulated time:    0 -> 100  (dt = 0.05, ~2000 steps)
  Output cadence:    every 1 step(s)
  Output rows:       ~2001
  Progress cadence:  every 100 step(s)
  CPU cores:         256 available, 8 Rayon worker thread(s)
  Strong coupling:   disabled
  Impulse scheme:    enabled
  Hamiltonian step:  disabled
  Hamiltonian midpt: disabled
  Variational step:  disabled
  Energy projection: disabled
  Projection particular metric: Euclidean
  Fluid KE gradient: disabled  (eps = 0.001, scale = 1, linear = 1, angular = 1)
  Fluid KE discrete gradient: disabled
  Impulse pair metric correction: disabled  (mode = pair discrete-gradient, cutoff = all pairs, inner/outer = 0/0, eps = 0.001, linear scale = 1, angular scale = 0)
  Impulse metric correction: disabled  (internal load constraint = disabled)
  Impulse variational defect probe: disabled
  Impulse quadratic pressure: disabled  (scale = 1)
  Added-mass stab:   disabled
  Exact BEM geometry: disabled
  Exact singular BEM: disabled
  Legacy singular SLP diagnostic: disabled
  Phi-dot blend:     0 (off)

  Solver guidance:
    - Strong coupling: use for stiff close-coupled runs; slower but more implicit.
    - Impulse scheme: use when impulse/momentum conservation or KE drift is the focus. Recommended.
    - Added-mass stab: use for higher mesh counts (ndiv > 3) to preserve stability - deprecated.
================================================
Solver starting - good luck!

Initial state:
  Body  1
    density:          10.000000
    shape axes ratio: (1.000000, 0.800000, 0.600000)
    initial KE ratio: 0.550000
    position:         (-4.000000, 0.000000, 0.000000)
    velocity:         (-4.896446, -1.400912, 2.998202)
    angular velocity: (1.202460, 4.198870, -4.516857)
    orientation:      (w=0.577350, i=0.577350, j=0.577350, k=0.000000)
  Body  2
    density:          10.000000
    shape axes ratio: (1.000000, 0.800000, 0.600000)
    initial KE ratio: 0.550000
    position:         (4.000000, 0.000000, 0.000000)
    velocity:         (-4.483745, -1.282835, 2.745496)
    angular velocity: (3.499795, 5.185999, 0.579018)
    orientation:      (w=0.577350, i=-0.577350, j=0.000000, k=0.577350)

Preparing first step: implicit scheme, no bootstrap passes required.
First step may take longer than later steps.

First step completed in 7.721 s.

Step   100/2000    5.0% | t 5.000 | ETA 2m 51s | step 0.10s | KE 2010.2384 | drift -0.48% | fluid 87.7629 | solid 1922.4755
  Impulse FP iterations last/mean/max 7/7.11/8
Step   200/2000   10.0% | t 10.000 | ETA 2m 47s | step 0.09s | KE 2007.3038 | drift -0.62% | fluid 84.9169 | solid 1922.3869
  Impulse FP iterations last/mean/max 7/7.12/8
Step   300/2000   15.0% | t 15.000 | ETA 2m 40s | step 0.10s | KE 2006.9245 | drift -0.64% | fluid 82.7437 | solid 1924.1808
  Impulse FP iterations last/mean/max 7/7.15/8
Step   400/2000   20.0% | t 20.000 | ETA 2m 31s | step 0.10s | KE 2006.8737 | drift -0.64% | fluid 75.4563 | solid 1931.4175
  Impulse FP iterations last/mean/max 7/7.15/8
Step   500/2000   25.0% | t 25.000 | ETA 2m 23s | step 0.11s | KE 2006.2145 | drift -0.68% | fluid 79.9059 | solid 1926.3085
  Impulse FP iterations last/mean/max 8/7.16/8
Step   600/2000   30.0% | t 30.000 | ETA 2m 14s | step 0.08s | KE 2006.3274 | drift -0.67% | fluid 77.4360 | solid 1928.8914
  Impulse FP iterations last/mean/max 7/7.15/8
Step   700/2000   35.0% | t 35.000 | ETA 2m 4s | step 0.10s | KE 2006.3819 | drift -0.67% | fluid 76.6076 | solid 1929.7743
  Impulse FP iterations last/mean/max 7/7.15/8
Step   800/2000   40.0% | t 40.000 | ETA 1m 55s | step 0.09s | KE 2005.8855 | drift -0.69% | fluid 98.0475 | solid 1907.8380
  Impulse FP iterations last/mean/max 7/7.14/8
Step   900/2000   45.0% | t 45.000 | ETA 1m 45s | step 0.10s | KE 2006.1811 | drift -0.68% | fluid 85.0933 | solid 1921.0878
  Impulse FP iterations last/mean/max 8/7.14/8
Step  1000/2000   50.0% | t 50.000 | ETA 1m 35s | step 0.09s | KE 2006.2964 | drift -0.67% | fluid 70.3048 | solid 1935.9916
  Impulse FP iterations last/mean/max 7/7.14/8
Step  1100/2000   55.0% | t 55.000 | ETA 1m 26s | step 0.10s | KE 2006.5774 | drift -0.66% | fluid 65.7650 | solid 1940.8124
  Impulse FP iterations last/mean/max 7/7.14/8
Step  1200/2000   60.0% | t 60.000 | ETA 1m 16s | step 0.10s | KE 2005.8390 | drift -0.70% | fluid 89.4231 | solid 1916.4159
  Impulse FP iterations last/mean/max 7/7.14/8
Step  1300/2000   65.0% | t 65.000 | ETA 1m 7s | step 0.10s | KE 2005.9314 | drift -0.69% | fluid 89.5701 | solid 1916.3613
  Impulse FP iterations last/mean/max 7/7.14/8
Step  1400/2000   70.0% | t 70.000 | ETA 57s | step 0.10s | KE 2006.8348 | drift -0.65% | fluid 67.5779 | solid 1939.2569
  Impulse FP iterations last/mean/max 7/7.14/8
Step  1500/2000   75.0% | t 75.000 | ETA 48s | step 0.11s | KE 2005.7887 | drift -0.70% | fluid 100.0206 | solid 1905.7681
  Impulse FP iterations last/mean/max 8/7.14/8
Step  1600/2000   80.0% | t 80.000 | ETA 38s | step 0.10s | KE 2006.0928 | drift -0.68% | fluid 79.6227 | solid 1926.4701
  Impulse FP iterations last/mean/max 7/7.14/8
Step  1700/2000   85.0% | t 85.000 | ETA 28s | step 0.09s | KE 2006.5157 | drift -0.66% | fluid 62.6518 | solid 1943.8639
  Impulse FP iterations last/mean/max 7/7.14/8
Step  1800/2000   90.0% | t 90.000 | ETA 19s | step 0.09s | KE 2006.2529 | drift -0.68% | fluid 82.7399 | solid 1923.5130
  Impulse FP iterations last/mean/max 7/7.14/8
Step  1900/2000   95.0% | t 95.000 | ETA 9s | step 0.09s | KE 2006.2939 | drift -0.67% | fluid 85.1769 | solid 1921.1170
  Impulse FP iterations last/mean/max 7/7.14/8
Solver finished successfully - good job!
Results saved successfully.

================== Run summary ==================
  Bodies:            2
  Triangles / nodes: 256 / 516
  Timesteps:         2000  (dt = 0.05)
  Simulated time:    0 -> 100
  First-step setup:  7.721 s
  Mean time/step:    0.0960 s  (excl. first step)
  Total wall time:   3m 19s
  Impulse FP iters last/mean/max: 8 / 7.138 / 8
  Approx impulse solves/step:     7.139
  Impulse start cache hits/direct: 1999 / 1
  Impulse global drift P/H:       2.422718e-9 / 2.579148e-2
  Impulse per-body max drift P/H: 2.901449e-9 / 8.111485e-3
  CPU cores:         256 available, 8 Rayon worker thread(s)
  Started:           2026-06-22 19:23:16
  Finished:          2026-06-22 19:26:37
  Output file:       /work/e643/e643/shared/multi_ellip/studies/two_body_paper_sweeps/runs/ellipsoid_1_0p8_0p6/ellipsoid_1_0p8_0p6_rho10_E0p55_sep8_run02_impulse_noproj/multiple_body_complete.dat
================================================
