
================ Simulation setup ================
  Run label:         /work/e643/e643/shared/multi_ellip/studies/two_body_paper_sweeps/runs/ellipsoid_1_0p8_0p6/ellipsoid_1_0p8_0p6_rho10_E4_sep8_run04_impulse_noproj/
  Started:           2026-06-24 01:21:17
  Input file:        /work/e643/e643/shared/multi_ellip/studies/two_body_paper_sweeps/runs/ellipsoid_1_0p8_0p6/ellipsoid_1_0p8_0p6_rho10_E4_sep8_run04_impulse_noproj/input.txt
  Output file:       /work/e643/e643/shared/multi_ellip/studies/two_body_paper_sweeps/runs/ellipsoid_1_0p8_0p6/ellipsoid_1_0p8_0p6_rho10_E4_sep8_run04_impulse_noproj/multiple_body_complete.dat
  Bodies:            2
  Fluid density:     1
  Mesh:              ndiv 2 -> 256 triangles / 516 nodes
  Simulated time:    0 -> 100  (dt = 0.05, ~2000 steps)
  Output cadence:    every 1 step(s)
  Output rows:       ~2001
  Progress cadence:  every 100 step(s)
  CPU cores:         256 available, 8 Rayon worker thread(s)
  Strong coupling:   disabled
  Impulse scheme:    enabled
  Hamiltonian step:  disabled
  Hamiltonian midpt: disabled
  Variational step:  disabled
  Energy projection: disabled
  Projection particular metric: Euclidean
  Fluid KE gradient: disabled  (eps = 0.001, scale = 1, linear = 1, angular = 1)
  Fluid KE discrete gradient: disabled
  Impulse pair metric correction: disabled  (mode = pair discrete-gradient, cutoff = all pairs, inner/outer = 0/0, eps = 0.001, linear scale = 1, angular scale = 0)
  Impulse metric correction: disabled  (internal load constraint = disabled)
  Impulse variational defect probe: disabled
  Impulse quadratic pressure: disabled  (scale = 1)
  Added-mass stab:   disabled
  Exact BEM geometry: disabled
  Exact singular BEM: disabled
  Legacy singular SLP diagnostic: disabled
  Phi-dot blend:     0 (off)

  Solver guidance:
    - Strong coupling: use for stiff close-coupled runs; slower but more implicit.
    - Impulse scheme: use when impulse/momentum conservation or KE drift is the focus. Recommended.
    - Added-mass stab: use for higher mesh counts (ndiv > 3) to preserve stability - deprecated.
================================================
Solver starting - good luck!

Initial state:
  Body  1
    density:          10.000000
    shape axes ratio: (1.000000, 0.800000, 0.600000)
    initial KE ratio: 4.000000
    position:         (-4.000000, 0.000000, 0.000000)
    velocity:         (1.334020, -0.492732, 1.323769)
    angular velocity: (4.545527, 4.325552, -0.325890)
    orientation:      (w=0.095470, i=-0.532945, j=0.778099, k=0.318461)
  Body  2
    density:          10.000000
    shape axes ratio: (1.000000, 0.800000, 0.600000)
    initial KE ratio: 4.000000
    position:         (4.000000, 0.000000, 0.000000)
    velocity:         (1.417446, -0.523546, 1.406554)
    angular velocity: (-2.000480, 5.955645, -0.082374)
    orientation:      (w=0.199186, i=0.978751, j=0.020862, k=-0.043999)

Preparing first step: implicit scheme, no bootstrap passes required.
First step may take longer than later steps.

First step completed in 0.246 s.

Step   100/2000    5.0% | t 5.000 | ETA 3m 2s | step 0.10s | KE 868.3031 | drift +0.23% | fluid 16.0913 | solid 852.2118
  Impulse FP iterations last/mean/max 7/7.20/8
Step   200/2000   10.0% | t 10.000 | ETA 2m 58s | step 0.09s | KE 869.9121 | drift +0.42% | fluid 20.8298 | solid 849.0824
  Impulse FP iterations last/mean/max 7/7.12/8
Step   300/2000   15.0% | t 15.000 | ETA 2m 49s | step 0.10s | KE 871.4104 | drift +0.59% | fluid 13.5457 | solid 857.8647
  Impulse FP iterations last/mean/max 7/7.12/8
Step   400/2000   20.0% | t 20.000 | ETA 2m 41s | step 0.10s | KE 872.5981 | drift +0.73% | fluid 18.2516 | solid 854.3464
  Impulse FP iterations last/mean/max 7/7.14/8
Step   500/2000   25.0% | t 25.000 | ETA 2m 30s | step 0.10s | KE 873.5774 | drift +0.84% | fluid 18.0072 | solid 855.5702
  Impulse FP iterations last/mean/max 7/7.13/8
Step   600/2000   30.0% | t 30.000 | ETA 2m 21s | step 0.09s | KE 874.4758 | drift +0.94% | fluid 14.1182 | solid 860.3576
  Impulse FP iterations last/mean/max 7/7.13/8
Step   700/2000   35.0% | t 35.000 | ETA 2m 11s | step 0.10s | KE 875.1777 | drift +1.02% | fluid 18.4561 | solid 856.7216
  Impulse FP iterations last/mean/max 7/7.15/8
Step   800/2000   40.0% | t 40.000 | ETA 2m 1s | step 0.10s | KE 875.6832 | drift +1.08% | fluid 14.9730 | solid 860.7102
  Impulse FP iterations last/mean/max 7/7.14/8
Step   900/2000   45.0% | t 45.000 | ETA 1m 51s | step 0.10s | KE 876.3072 | drift +1.15% | fluid 15.9582 | solid 860.3490
  Impulse FP iterations last/mean/max 7/7.14/8
Step  1000/2000   50.0% | t 50.000 | ETA 1m 41s | step 0.10s | KE 876.6019 | drift +1.19% | fluid 19.7024 | solid 856.8995
  Impulse FP iterations last/mean/max 8/7.15/8
Step  1100/2000   55.0% | t 55.000 | ETA 1m 31s | step 0.09s | KE 877.0218 | drift +1.24% | fluid 13.1211 | solid 863.9008
  Impulse FP iterations last/mean/max 7/7.15/8
Step  1200/2000   60.0% | t 60.000 | ETA 1m 21s | step 0.10s | KE 877.3183 | drift +1.27% | fluid 19.0437 | solid 858.2745
  Impulse FP iterations last/mean/max 7/7.14/8
Step  1300/2000   65.0% | t 65.000 | ETA 1m 11s | step 0.11s | KE 877.5630 | drift +1.30% | fluid 12.3135 | solid 865.2495
  Impulse FP iterations last/mean/max 7/7.15/8
Step  1400/2000   70.0% | t 70.000 | ETA 1m 0s | step 0.10s | KE 877.7778 | drift +1.32% | fluid 17.9382 | solid 859.8396
  Impulse FP iterations last/mean/max 7/7.15/8
Step  1500/2000   75.0% | t 75.000 | ETA 50s | step 0.10s | KE 877.9472 | drift +1.34% | fluid 18.1637 | solid 859.7835
  Impulse FP iterations last/mean/max 7/7.15/8
Step  1600/2000   80.0% | t 80.000 | ETA 40s | step 0.10s | KE 878.1370 | drift +1.36% | fluid 14.7142 | solid 863.4228
  Impulse FP iterations last/mean/max 7/7.15/8
Step  1700/2000   85.0% | t 85.000 | ETA 30s | step 0.10s | KE 878.1953 | drift +1.37% | fluid 20.5752 | solid 857.6201
  Impulse FP iterations last/mean/max 7/7.15/8
Step  1800/2000   90.0% | t 90.000 | ETA 20s | step 0.10s | KE 878.3678 | drift +1.39% | fluid 15.1376 | solid 863.2302
  Impulse FP iterations last/mean/max 7/7.15/8
Step  1900/2000   95.0% | t 95.000 | ETA 10s | step 0.10s | KE 878.4434 | drift +1.40% | fluid 17.8930 | solid 860.5503
  Impulse FP iterations last/mean/max 7/7.15/8
Solver finished successfully - good job!
Results saved successfully.

================== Run summary ==================
  Bodies:            2
  Triangles / nodes: 256 / 516
  Timesteps:         2000  (dt = 0.05)
  Simulated time:    0 -> 100
  First-step setup:  0.246 s
  Mean time/step:    0.1012 s  (excl. first step)
  Total wall time:   3m 22s
  Impulse FP iters last/mean/max: 7 / 7.149 / 8
  Approx impulse solves/step:     7.150
  Impulse start cache hits/direct: 1999 / 1
  Impulse global drift P/H:       7.325307e-9 / 5.027290e-3
  Impulse per-body max drift P/H: 1.035848e-8 / 2.921076e-3
  CPU cores:         256 available, 8 Rayon worker thread(s)
  Started:           2026-06-24 01:21:17
  Finished:          2026-06-24 01:24:40
  Output file:       /work/e643/e643/shared/multi_ellip/studies/two_body_paper_sweeps/runs/ellipsoid_1_0p8_0p6/ellipsoid_1_0p8_0p6_rho10_E4_sep8_run04_impulse_noproj/multiple_body_complete.dat
================================================
