
================ Simulation setup ================
  Run label:         /work/e643/e643/shared/multi_ellip/studies/two_body_paper_sweeps/runs/ellipsoid_1_0p8_0p6/ellipsoid_1_0p8_0p6_rho0p3_E11_sep8_run03_impulse_noproj/
  Started:           2026-06-24 01:58:13
  Input file:        /work/e643/e643/shared/multi_ellip/studies/two_body_paper_sweeps/runs/ellipsoid_1_0p8_0p6/ellipsoid_1_0p8_0p6_rho0p3_E11_sep8_run03_impulse_noproj/input.txt
  Output file:       /work/e643/e643/shared/multi_ellip/studies/two_body_paper_sweeps/runs/ellipsoid_1_0p8_0p6/ellipsoid_1_0p8_0p6_rho0p3_E11_sep8_run03_impulse_noproj/multiple_body_complete.dat
  Bodies:            2
  Fluid density:     1
  Mesh:              ndiv 2 -> 256 triangles / 516 nodes
  Simulated time:    0 -> 100  (dt = 0.05, ~2000 steps)
  Output cadence:    every 1 step(s)
  Output rows:       ~2001
  Progress cadence:  every 100 step(s)
  CPU cores:         256 available, 8 Rayon worker thread(s)
  Strong coupling:   disabled
  Impulse scheme:    enabled
  Hamiltonian step:  disabled
  Hamiltonian midpt: disabled
  Variational step:  disabled
  Energy projection: disabled
  Projection particular metric: Euclidean
  Fluid KE gradient: disabled  (eps = 0.001, scale = 1, linear = 1, angular = 1)
  Fluid KE discrete gradient: disabled
  Impulse pair metric correction: disabled  (mode = pair discrete-gradient, cutoff = all pairs, inner/outer = 0/0, eps = 0.001, linear scale = 1, angular scale = 0)
  Impulse metric correction: disabled  (internal load constraint = disabled)
  Impulse variational defect probe: disabled
  Impulse quadratic pressure: disabled  (scale = 1)
  Added-mass stab:   disabled
  Exact BEM geometry: disabled
  Exact singular BEM: disabled
  Legacy singular SLP diagnostic: disabled
  Phi-dot blend:     0 (off)

  Solver guidance:
    - Strong coupling: use for stiff close-coupled runs; slower but more implicit.
    - Impulse scheme: use when impulse/momentum conservation or KE drift is the focus. Recommended.
    - Added-mass stab: use for higher mesh counts (ndiv > 3) to preserve stability - deprecated.
================================================
Solver starting - good luck!

Initial state:
  Body  1
    density:          0.300000
    shape axes ratio: (1.000000, 0.800000, 0.600000)
    initial KE ratio: 11.000000
    position:         (-4.000000, 0.000000, 0.000000)
    velocity:         (0.540179, 1.021277, -0.339712)
    angular velocity: (4.709697, -2.428401, -3.376395)
    orientation:      (w=0.689525, i=-0.092702, j=0.065604, k=-0.715303)
  Body  2
    density:          0.300000
    shape axes ratio: (1.000000, 0.800000, 0.600000)
    initial KE ratio: 11.000000
    position:         (4.000000, 0.000000, 0.000000)
    velocity:         (0.539830, 1.020617, -0.339492)
    angular velocity: (-3.676079, -5.092584, 0.174491)
    orientation:      (w=0.181214, i=0.768908, j=-0.333041, k=-0.514807)

Preparing first step: implicit scheme, no bootstrap passes required.
First step may take longer than later steps.

First step completed in 0.335 s.

Step   100/2000    5.0% | t 5.000 | ETA 6m 20s | step 0.21s | KE 36.8495 | drift +0.47% | fluid 11.8437 | solid 25.0059
  Impulse FP iterations last/mean/max 14/14.15/15
Step   200/2000   10.0% | t 10.000 | ETA 6m 3s | step 0.20s | KE 36.9813 | drift +0.83% | fluid 11.9205 | solid 25.0609
  Impulse FP iterations last/mean/max 14/14.16/16
Step   300/2000   15.0% | t 15.000 | ETA 5m 44s | step 0.20s | KE 37.1023 | drift +1.16% | fluid 13.9110 | solid 23.1913
  Impulse FP iterations last/mean/max 14/14.15/16
Step   400/2000   20.0% | t 20.000 | ETA 5m 25s | step 0.18s | KE 37.2116 | drift +1.45% | fluid 12.3983 | solid 24.8133
  Impulse FP iterations last/mean/max 14/14.16/16
Step   500/2000   25.0% | t 25.000 | ETA 5m 5s | step 0.21s | KE 37.3049 | drift +1.71% | fluid 12.2868 | solid 25.0182
  Impulse FP iterations last/mean/max 14/14.16/16
Step   600/2000   30.0% | t 30.000 | ETA 4m 45s | step 0.20s | KE 37.3834 | drift +1.92% | fluid 11.7867 | solid 25.5966
  Impulse FP iterations last/mean/max 14/14.14/16
Step   700/2000   35.0% | t 35.000 | ETA 4m 24s | step 0.20s | KE 37.4556 | drift +2.12% | fluid 13.3384 | solid 24.1171
  Impulse FP iterations last/mean/max 14/14.13/16
Step   800/2000   40.0% | t 40.000 | ETA 4m 4s | step 0.21s | KE 37.5183 | drift +2.29% | fluid 13.7219 | solid 23.7964
  Impulse FP iterations last/mean/max 14/14.13/16
Step   900/2000   45.0% | t 45.000 | ETA 3m 44s | step 0.20s | KE 37.5736 | drift +2.44% | fluid 11.4301 | solid 26.1435
  Impulse FP iterations last/mean/max 14/14.12/16
Step  1000/2000   50.0% | t 50.000 | ETA 3m 23s | step 0.21s | KE 37.6165 | drift +2.56% | fluid 12.2513 | solid 25.3652
  Impulse FP iterations last/mean/max 15/14.13/16
Step  1100/2000   55.0% | t 55.000 | ETA 3m 3s | step 0.19s | KE 37.6562 | drift +2.67% | fluid 13.6792 | solid 23.9770
  Impulse FP iterations last/mean/max 13/14.13/16
Step  1200/2000   60.0% | t 60.000 | ETA 2m 43s | step 0.20s | KE 37.6993 | drift +2.78% | fluid 12.6215 | solid 25.0778
  Impulse FP iterations last/mean/max 14/14.13/16
Step  1300/2000   65.0% | t 65.000 | ETA 2m 22s | step 0.22s | KE 37.7326 | drift +2.87% | fluid 12.4071 | solid 25.3256
  Impulse FP iterations last/mean/max 15/14.13/16
Step  1400/2000   70.0% | t 70.000 | ETA 2m 2s | step 0.21s | KE 37.7579 | drift +2.94% | fluid 12.3554 | solid 25.4025
  Impulse FP iterations last/mean/max 14/14.12/16
Step  1500/2000   75.0% | t 75.000 | ETA 1m 41s | step 0.19s | KE 37.7714 | drift +2.98% | fluid 13.0165 | solid 24.7549
  Impulse FP iterations last/mean/max 13/14.12/16
Step  1600/2000   80.0% | t 80.000 | ETA 1m 21s | step 0.20s | KE 37.7860 | drift +3.02% | fluid 13.7074 | solid 24.0786
  Impulse FP iterations last/mean/max 14/14.12/16
Step  1700/2000   85.0% | t 85.000 | ETA 1m 1s | step 0.19s | KE 37.8013 | drift +3.06% | fluid 11.6750 | solid 26.1263
  Impulse FP iterations last/mean/max 14/14.12/16
Step  1800/2000   90.0% | t 90.000 | ETA 40s | step 0.21s | KE 37.8137 | drift +3.10% | fluid 11.9246 | solid 25.8891
  Impulse FP iterations last/mean/max 14/14.12/16
Step  1900/2000   95.0% | t 95.000 | ETA 20s | step 0.20s | KE 37.8151 | drift +3.10% | fluid 14.2702 | solid 23.5449
  Impulse FP iterations last/mean/max 14/14.12/16
Solver finished successfully - good job!
Results saved successfully.

================== Run summary ==================
  Bodies:            2
  Triangles / nodes: 256 / 516
  Timesteps:         2000  (dt = 0.05)
  Simulated time:    0 -> 100
  First-step setup:  0.335 s
  Mean time/step:    0.2024 s  (excl. first step)
  Total wall time:   6m 44s
  Impulse FP iters last/mean/max: 14 / 14.114 / 16
  Approx impulse solves/step:     14.115
  Impulse start cache hits/direct: 1999 / 1
  Impulse global drift P/H:       3.736413e-8 / 2.068268e-2
  Impulse per-body max drift P/H: 7.713619e-8 / 6.625582e-3
  CPU cores:         256 available, 8 Rayon worker thread(s)
  Started:           2026-06-24 01:58:13
  Finished:          2026-06-24 02:04:59
  Output file:       /work/e643/e643/shared/multi_ellip/studies/two_body_paper_sweeps/runs/ellipsoid_1_0p8_0p6/ellipsoid_1_0p8_0p6_rho0p3_E11_sep8_run03_impulse_noproj/multiple_body_complete.dat
================================================
