
================ Simulation setup ================
  Run label:         /work/e643/e643/shared/multi_ellip/studies/two_body_paper_sweeps/runs/ellipsoid_1_0p8_0p6/ellipsoid_1_0p8_0p6_rho0p1_E0p2_sep3_run01_impulse_noproj/
  Started:           2026-06-22 19:54:14
  Input file:        /work/e643/e643/shared/multi_ellip/studies/two_body_paper_sweeps/runs/ellipsoid_1_0p8_0p6/ellipsoid_1_0p8_0p6_rho0p1_E0p2_sep3_run01_impulse_noproj/input.txt
  Output file:       /work/e643/e643/shared/multi_ellip/studies/two_body_paper_sweeps/runs/ellipsoid_1_0p8_0p6/ellipsoid_1_0p8_0p6_rho0p1_E0p2_sep3_run01_impulse_noproj/multiple_body_complete.dat
  Bodies:            2
  Fluid density:     1
  Mesh:              ndiv 2 -> 256 triangles / 516 nodes
  Simulated time:    0 -> 100  (dt = 0.05, ~2000 steps)
  Output cadence:    every 1 step(s)
  Output rows:       ~2001
  Progress cadence:  every 100 step(s)
  CPU cores:         256 available, 8 Rayon worker thread(s)
  Strong coupling:   disabled
  Impulse scheme:    enabled
  Hamiltonian step:  disabled
  Hamiltonian midpt: disabled
  Variational step:  disabled
  Energy projection: disabled
  Projection particular metric: Euclidean
  Fluid KE gradient: disabled  (eps = 0.001, scale = 1, linear = 1, angular = 1)
  Fluid KE discrete gradient: disabled
  Impulse pair metric correction: disabled  (mode = pair discrete-gradient, cutoff = all pairs, inner/outer = 0/0, eps = 0.001, linear scale = 1, angular scale = 0)
  Impulse metric correction: disabled  (internal load constraint = disabled)
  Impulse variational defect probe: disabled
  Impulse quadratic pressure: disabled  (scale = 1)
  Added-mass stab:   disabled
  Exact BEM geometry: disabled
  Exact singular BEM: disabled
  Legacy singular SLP diagnostic: disabled
  Phi-dot blend:     0 (off)

  Solver guidance:
    - Strong coupling: use for stiff close-coupled runs; slower but more implicit.
    - Impulse scheme: use when impulse/momentum conservation or KE drift is the focus. Recommended.
    - Added-mass stab: use for higher mesh counts (ndiv > 3) to preserve stability - deprecated.
================================================
Solver starting - good luck!

Initial state:
  Body  1
    density:          0.100000
    shape axes ratio: (1.000000, 0.800000, 0.600000)
    initial KE ratio: 0.200000
    position:         (-1.500000, 0.000000, 0.000000)
    velocity:         (-1.716013, -9.778563, 2.456688)
    angular velocity: (0.603686, -1.174736, 6.142799)
    orientation:      (w=0.447214, i=0.894427, j=0.000000, k=0.000000)
  Body  2
    density:          0.100000
    shape axes ratio: (1.000000, 0.800000, 0.600000)
    initial KE ratio: 0.200000
    position:         (1.500000, 0.000000, 0.000000)
    velocity:         (-1.348262, -7.682962, 1.930206)
    angular velocity: (-6.269815, 0.041888, -0.407533)
    orientation:      (w=0.707107, i=0.000000, j=0.707107, k=0.000000)

Preparing first step: implicit scheme, no bootstrap passes required.
First step may take longer than later steps.

First step completed in 0.280 s.

Step   100/2000    5.0% | t 5.000 | ETA 8m 28s | step 0.25s | KE 268.8210 | drift -0.50% | fluid 223.5075 | solid 45.3135
  Impulse FP iterations last/mean/max 20/21.64/25
Step   200/2000   10.0% | t 10.000 | ETA 8m 18s | step 0.30s | KE 269.9424 | drift -0.08% | fluid 222.2837 | solid 47.6587
  Impulse FP iterations last/mean/max 24/21.66/25
Step   300/2000   15.0% | t 15.000 | ETA 7m 51s | step 0.27s | KE 269.6999 | drift -0.17% | fluid 223.0987 | solid 46.6012
  Impulse FP iterations last/mean/max 20/21.58/26
Step   400/2000   20.0% | t 20.000 | ETA 7m 23s | step 0.27s | KE 267.2077 | drift -1.10% | fluid 222.9433 | solid 44.2644
  Impulse FP iterations last/mean/max 22/21.61/26
Step   500/2000   25.0% | t 25.000 | ETA 6m 53s | step 0.28s | KE 264.2579 | drift -2.19% | fluid 216.4158 | solid 47.8421
  Impulse FP iterations last/mean/max 23/21.61/26
Step   600/2000   30.0% | t 30.000 | ETA 6m 24s | step 0.26s | KE 269.4253 | drift -0.27% | fluid 224.4053 | solid 45.0199
  Impulse FP iterations last/mean/max 20/21.60/26
Step   700/2000   35.0% | t 35.000 | ETA 5m 55s | step 0.24s | KE 268.9183 | drift -0.46% | fluid 223.3824 | solid 45.5359
  Impulse FP iterations last/mean/max 22/21.57/26
Step   800/2000   40.0% | t 40.000 | ETA 5m 27s | step 0.30s | KE 268.3484 | drift -0.67% | fluid 218.6565 | solid 49.6919
  Impulse FP iterations last/mean/max 24/21.60/26
Step   900/2000   45.0% | t 45.000 | ETA 5m 0s | step 0.28s | KE 268.9882 | drift -0.44% | fluid 224.0720 | solid 44.9162
  Impulse FP iterations last/mean/max 22/21.59/26
Step  1000/2000   50.0% | t 50.000 | ETA 4m 32s | step 0.27s | KE 263.3836 | drift -2.51% | fluid 218.0287 | solid 45.3548
  Impulse FP iterations last/mean/max 21/21.59/26
Step  1100/2000   55.0% | t 55.000 | ETA 4m 4s | step 0.31s | KE 267.5253 | drift -0.98% | fluid 218.4112 | solid 49.1140
  Impulse FP iterations last/mean/max 23/21.58/26
Step  1200/2000   60.0% | t 60.000 | ETA 3m 37s | step 0.27s | KE 270.2505 | drift +0.03% | fluid 224.2763 | solid 45.9742
  Impulse FP iterations last/mean/max 21/21.59/27
Step  1300/2000   65.0% | t 65.000 | ETA 3m 10s | step 0.35s | KE 267.9274 | drift -0.83% | fluid 219.6221 | solid 48.3054
  Impulse FP iterations last/mean/max 25/21.60/27
Step  1400/2000   70.0% | t 70.000 | ETA 2m 43s | step 0.27s | KE 267.1033 | drift -1.13% | fluid 215.6228 | solid 51.4805
  Impulse FP iterations last/mean/max 23/21.59/27
Step  1500/2000   75.0% | t 75.000 | ETA 2m 16s | step 0.27s | KE 264.0509 | drift -2.26% | fluid 219.6401 | solid 44.4107
  Impulse FP iterations last/mean/max 21/21.58/27
Step  1600/2000   80.0% | t 80.000 | ETA 1m 48s | step 0.27s | KE 267.5927 | drift -0.95% | fluid 218.3280 | solid 49.2647
  Impulse FP iterations last/mean/max 21/21.59/27
Step  1700/2000   85.0% | t 85.000 | ETA 1m 21s | step 0.23s | KE 269.8116 | drift -0.13% | fluid 218.3522 | solid 51.4594
  Impulse FP iterations last/mean/max 21/21.57/27
Step  1800/2000   90.0% | t 90.000 | ETA 53s | step 0.18s | KE 268.2154 | drift -0.72% | fluid 218.2412 | solid 49.9742
  Impulse FP iterations last/mean/max 21/21.58/27
Step  1900/2000   95.0% | t 95.000 | ETA 26s | step 0.19s | KE 266.3993 | drift -1.39% | fluid 215.0128 | solid 51.3865
  Impulse FP iterations last/mean/max 22/21.57/27
Solver finished successfully - good job!
Results saved successfully.

================== Run summary ==================
  Bodies:            2
  Triangles / nodes: 256 / 516
  Timesteps:         2000  (dt = 0.05)
  Simulated time:    0 -> 100
  First-step setup:  0.280 s
  Mean time/step:    0.2599 s  (excl. first step)
  Total wall time:   8m 39s
  Impulse FP iters last/mean/max: 22 / 21.579 / 27
  Approx impulse solves/step:     21.580
  Impulse start cache hits/direct: 1999 / 1
  Impulse global drift P/H:       2.368967e-8 / 1.109072e-2
  Impulse per-body max drift P/H: 3.758133e-8 / 4.558513e-3
  CPU cores:         256 available, 8 Rayon worker thread(s)
  Started:           2026-06-22 19:54:14
  Finished:          2026-06-22 20:02:54
  Output file:       /work/e643/e643/shared/multi_ellip/studies/two_body_paper_sweeps/runs/ellipsoid_1_0p8_0p6/ellipsoid_1_0p8_0p6_rho0p1_E0p2_sep3_run01_impulse_noproj/multiple_body_complete.dat
================================================
