
================ Simulation setup ================
  Run label:         /work/e643/e643/shared/multi_ellip/studies/two_body_paper_sweeps/runs/spheroid_1_0p7_0p7/spheroid_1_0p7_0p7_rho0p1_E30_sep5_run02_impulse_noproj/
  Started:           2026-06-22 20:00:40
  Input file:        /work/e643/e643/shared/multi_ellip/studies/two_body_paper_sweeps/runs/spheroid_1_0p7_0p7/spheroid_1_0p7_0p7_rho0p1_E30_sep5_run02_impulse_noproj/input.txt
  Output file:       /work/e643/e643/shared/multi_ellip/studies/two_body_paper_sweeps/runs/spheroid_1_0p7_0p7/spheroid_1_0p7_0p7_rho0p1_E30_sep5_run02_impulse_noproj/multiple_body_complete.dat
  Bodies:            2
  Fluid density:     1
  Mesh:              ndiv 2 -> 256 triangles / 516 nodes
  Simulated time:    0 -> 100  (dt = 0.05, ~2000 steps)
  Output cadence:    every 1 step(s)
  Output rows:       ~2001
  Progress cadence:  every 100 step(s)
  CPU cores:         256 available, 8 Rayon worker thread(s)
  Strong coupling:   disabled
  Impulse scheme:    enabled
  Hamiltonian step:  disabled
  Hamiltonian midpt: disabled
  Variational step:  disabled
  Energy projection: disabled
  Projection particular metric: Euclidean
  Fluid KE gradient: disabled  (eps = 0.001, scale = 1, linear = 1, angular = 1)
  Fluid KE discrete gradient: disabled
  Impulse pair metric correction: disabled  (mode = pair discrete-gradient, cutoff = all pairs, inner/outer = 0/0, eps = 0.001, linear scale = 1, angular scale = 0)
  Impulse metric correction: disabled  (internal load constraint = disabled)
  Impulse variational defect probe: disabled
  Impulse quadratic pressure: disabled  (scale = 1)
  Added-mass stab:   disabled
  Exact BEM geometry: disabled
  Exact singular BEM: disabled
  Legacy singular SLP diagnostic: disabled
  Phi-dot blend:     0 (off)

  Solver guidance:
    - Strong coupling: use for stiff close-coupled runs; slower but more implicit.
    - Impulse scheme: use when impulse/momentum conservation or KE drift is the focus. Recommended.
    - Added-mass stab: use for higher mesh counts (ndiv > 3) to preserve stability - deprecated.
================================================
Solver starting - good luck!

Initial state:
  Body  1
    density:          0.100000
    shape axes ratio: (1.000000, 0.700000, 0.700000)
    initial KE ratio: 30.000000
    position:         (-2.500000, 0.000000, 0.000000)
    velocity:         (0.079772, -0.736638, -0.079116)
    angular velocity: (-3.719608, 5.062691, -0.109956)
    orientation:      (w=0.577350, i=0.577350, j=0.577350, k=0.000000)
  Body  2
    density:          0.100000
    shape axes ratio: (1.000000, 0.700000, 0.700000)
    initial KE ratio: 30.000000
    position:         (2.500000, 0.000000, 0.000000)
    velocity:         (0.074735, -0.690124, -0.074121)
    angular velocity: (5.123416, 3.605182, -0.481340)
    orientation:      (w=0.577350, i=-0.577350, j=0.000000, k=0.577350)

Preparing first step: implicit scheme, no bootstrap passes required.
First step may take longer than later steps.

First step completed in 0.374 s.

Step   100/2000    5.0% | t 5.000 | ETA 7m 10s | step 0.21s | KE 12.9798 | drift -0.63% | fluid 5.8341 | solid 7.1457
  Impulse FP iterations last/mean/max 15/16.32/18
Step   200/2000   10.0% | t 10.000 | ETA 6m 39s | step 0.21s | KE 12.8213 | drift -1.85% | fluid 5.7025 | solid 7.1188
  Impulse FP iterations last/mean/max 17/16.27/18
Step   300/2000   15.0% | t 15.000 | ETA 6m 7s | step 0.20s | KE 12.7824 | drift -2.14% | fluid 5.7872 | solid 6.9953
  Impulse FP iterations last/mean/max 16/16.20/18
Step   400/2000   20.0% | t 20.000 | ETA 5m 42s | step 0.17s | KE 12.9493 | drift -0.87% | fluid 5.8376 | solid 7.1117
  Impulse FP iterations last/mean/max 15/16.14/18
Step   500/2000   25.0% | t 25.000 | ETA 5m 20s | step 0.21s | KE 13.4303 | drift +2.82% | fluid 6.0221 | solid 7.4082
  Impulse FP iterations last/mean/max 16/16.15/18
Step   600/2000   30.0% | t 30.000 | ETA 5m 0s | step 0.24s | KE 13.9540 | drift +6.83% | fluid 6.2154 | solid 7.7386
  Impulse FP iterations last/mean/max 16/16.18/18
Step   700/2000   35.0% | t 35.000 | ETA 4m 39s | step 0.21s | KE 14.2700 | drift +9.24% | fluid 6.3575 | solid 7.9125
  Impulse FP iterations last/mean/max 16/16.20/18
Step   800/2000   40.0% | t 40.000 | ETA 4m 18s | step 0.24s | KE 14.4134 | drift +10.34% | fluid 6.3254 | solid 8.0880
  Impulse FP iterations last/mean/max 18/16.23/18
Step   900/2000   45.0% | t 45.000 | ETA 3m 57s | step 0.22s | KE 14.5016 | drift +11.02% | fluid 6.3674 | solid 8.1342
  Impulse FP iterations last/mean/max 17/16.25/18
Step  1000/2000   50.0% | t 50.000 | ETA 3m 35s | step 0.24s | KE 14.6094 | drift +11.84% | fluid 6.4807 | solid 8.1288
  Impulse FP iterations last/mean/max 17/16.26/18
Step  1100/2000   55.0% | t 55.000 | ETA 3m 14s | step 0.20s | KE 14.7995 | drift +13.30% | fluid 6.4653 | solid 8.3342
  Impulse FP iterations last/mean/max 16/16.28/18
Step  1200/2000   60.0% | t 60.000 | ETA 2m 52s | step 0.21s | KE 15.0838 | drift +15.47% | fluid 6.6036 | solid 8.4802
  Impulse FP iterations last/mean/max 17/16.28/18
Step  1300/2000   65.0% | t 65.000 | ETA 2m 30s | step 0.20s | KE 15.3246 | drift +17.32% | fluid 6.6886 | solid 8.6361
  Impulse FP iterations last/mean/max 16/16.30/18
Step  1400/2000   70.0% | t 70.000 | ETA 2m 9s | step 0.19s | KE 15.4674 | drift +18.41% | fluid 6.7703 | solid 8.6971
  Impulse FP iterations last/mean/max 16/16.32/18
Step  1500/2000   75.0% | t 75.000 | ETA 1m 47s | step 0.23s | KE 15.5122 | drift +18.75% | fluid 6.7461 | solid 8.7661
  Impulse FP iterations last/mean/max 16/16.33/18
Step  1600/2000   80.0% | t 80.000 | ETA 1m 25s | step 0.25s | KE 15.5196 | drift +18.81% | fluid 6.7229 | solid 8.7968
  Impulse FP iterations last/mean/max 18/16.33/19
Step  1700/2000   85.0% | t 85.000 | ETA 1m 4s | step 0.21s | KE 15.5478 | drift +19.03% | fluid 6.8033 | solid 8.7444
  Impulse FP iterations last/mean/max 15/16.32/19
Step  1800/2000   90.0% | t 90.000 | ETA 42s | step 0.18s | KE 15.5745 | drift +19.23% | fluid 6.7320 | solid 8.8424
  Impulse FP iterations last/mean/max 15/16.32/19
Step  1900/2000   95.0% | t 95.000 | ETA 21s | step 0.17s | KE 15.6423 | drift +19.75% | fluid 6.8202 | solid 8.8221
  Impulse FP iterations last/mean/max 16/16.31/19
Solver finished successfully - good job!
Results saved successfully.

================== Run summary ==================
  Bodies:            2
  Triangles / nodes: 256 / 516
  Timesteps:         2000  (dt = 0.05)
  Simulated time:    0 -> 100
  First-step setup:  0.374 s
  Mean time/step:    0.2100 s  (excl. first step)
  Total wall time:   7m 0s
  Impulse FP iters last/mean/max: 16 / 16.303 / 19
  Approx impulse solves/step:     16.303
  Impulse start cache hits/direct: 1999 / 1
  Impulse global drift P/H:       1.683270e-7 / 1.206104e-2
  Impulse per-body max drift P/H: 2.295066e-7 / 5.269135e-3
  CPU cores:         256 available, 8 Rayon worker thread(s)
  Started:           2026-06-22 20:00:40
  Finished:          2026-06-22 20:07:40
  Output file:       /work/e643/e643/shared/multi_ellip/studies/two_body_paper_sweeps/runs/spheroid_1_0p7_0p7/spheroid_1_0p7_0p7_rho0p1_E30_sep5_run02_impulse_noproj/multiple_body_complete.dat
================================================
