
================ Simulation setup ================
  Run label:         /work/e643/e643/shared/multi_ellip/studies/departing_sphericity_sweep/runs/spheroid_prolate/homogeneous/spheroid_prolate_homogeneous_eps0p3_rho1_E0p5_sep8_run09_impulse_noproj/
  Started:           2026-06-24 02:30:37
  Input file:        /work/e643/e643/shared/multi_ellip/studies/departing_sphericity_sweep/runs/spheroid_prolate/homogeneous/spheroid_prolate_homogeneous_eps0p3_rho1_E0p5_sep8_run09_impulse_noproj/input.txt
  Output file:       /work/e643/e643/shared/multi_ellip/studies/departing_sphericity_sweep/runs/spheroid_prolate/homogeneous/spheroid_prolate_homogeneous_eps0p3_rho1_E0p5_sep8_run09_impulse_noproj/multiple_body_complete.dat
  Bodies:            2
  Fluid density:     1
  Mesh:              ndiv 2 -> 256 triangles / 516 nodes
  Simulated time:    0 -> 100  (dt = 0.05, ~2000 steps)
  Output cadence:    every 1 step(s)
  Output rows:       ~2001
  Progress cadence:  every 100 step(s)
  CPU cores:         256 available, 8 Rayon worker thread(s)
  Strong coupling:   disabled
  Impulse scheme:    enabled
  Hamiltonian step:  disabled
  Hamiltonian midpt: disabled
  Variational step:  disabled
  Energy projection: disabled
  Projection particular metric: Euclidean
  Fluid KE gradient: disabled  (eps = 0.001, scale = 1, linear = 1, angular = 1)
  Fluid KE discrete gradient: disabled
  Impulse pair metric correction: disabled  (mode = pair discrete-gradient, cutoff = all pairs, inner/outer = 0/0, eps = 0.001, linear scale = 1, angular scale = 0)
  Impulse metric correction: disabled  (internal load constraint = disabled)
  Impulse variational defect probe: disabled
  Impulse quadratic pressure: disabled  (scale = 1)
  Added-mass stab:   disabled
  Exact BEM geometry: disabled
  Exact singular BEM: disabled
  Legacy singular SLP diagnostic: disabled
  Phi-dot blend:     0 (off)

  Solver guidance:
    - Strong coupling: use for stiff close-coupled runs; slower but more implicit.
    - Impulse scheme: use when impulse/momentum conservation or KE drift is the focus. Recommended.
    - Added-mass stab: use for higher mesh counts (ndiv > 3) to preserve stability - deprecated.
================================================
Solver starting - good luck!

Initial state:
  Body  1
    density:          1.000000
    shape axes ratio: (1.000000, 0.455166, 0.455166)
    initial KE ratio: 0.500000
    position:         (-4.000000, 0.000000, 0.000000)
    velocity:         (-4.688889, -2.659609, -1.677934)
    angular velocity: (-4.991959, -3.471881, 1.582657)
    orientation:      (w=-0.578745, i=-0.698155, j=0.403279, k=0.122480)
  Body  2
    density:          1.000000
    shape axes ratio: (1.000000, 0.455166, 0.455166)
    initial KE ratio: 0.500000
    position:         (4.000000, 0.000000, 0.000000)
    velocity:         (-3.687876, -2.091819, -1.319718)
    angular velocity: (-6.192050, -0.780447, -0.726524)
    orientation:      (w=0.797927, i=-0.088615, j=-0.100308, k=-0.587706)

Preparing first step: implicit scheme, no bootstrap passes required.
First step may take longer than later steps.

First step completed in 0.365 s.

Step   100/2000    5.0% | t 5.000 | ETA 5m 6s | step 0.16s | KE 338.0152 | drift -0.14% | fluid 112.8638 | solid 225.1514
  Impulse FP iterations last/mean/max 11/11.16/12
Step   200/2000   10.0% | t 10.000 | ETA 4m 46s | step 0.14s | KE 337.8001 | drift -0.20% | fluid 117.9329 | solid 219.8672
  Impulse FP iterations last/mean/max 10/11.11/12
Step   300/2000   15.0% | t 15.000 | ETA 4m 29s | step 0.14s | KE 337.9972 | drift -0.14% | fluid 113.7165 | solid 224.2807
  Impulse FP iterations last/mean/max 11/11.09/12
Step   400/2000   20.0% | t 20.000 | ETA 4m 13s | step 0.14s | KE 337.5731 | drift -0.27% | fluid 118.7611 | solid 218.8120
  Impulse FP iterations last/mean/max 10/11.05/12
Step   500/2000   25.0% | t 25.000 | ETA 3m 57s | step 0.17s | KE 337.8647 | drift -0.18% | fluid 111.5535 | solid 226.3113
  Impulse FP iterations last/mean/max 11/11.03/12
Step   600/2000   30.0% | t 30.000 | ETA 3m 41s | step 0.19s | KE 337.5899 | drift -0.26% | fluid 117.5905 | solid 219.9994
  Impulse FP iterations last/mean/max 12/11.03/12
Step   700/2000   35.0% | t 35.000 | ETA 3m 25s | step 0.16s | KE 337.9618 | drift -0.15% | fluid 112.6153 | solid 225.3465
  Impulse FP iterations last/mean/max 11/11.00/12
Step   800/2000   40.0% | t 40.000 | ETA 3m 9s | step 0.14s | KE 337.5738 | drift -0.27% | fluid 119.3916 | solid 218.1822
  Impulse FP iterations last/mean/max 10/11.00/12
Step   900/2000   45.0% | t 45.000 | ETA 2m 53s | step 0.18s | KE 337.9528 | drift -0.15% | fluid 112.3464 | solid 225.6064
  Impulse FP iterations last/mean/max 12/11.00/12
Step  1000/2000   50.0% | t 50.000 | ETA 2m 37s | step 0.16s | KE 337.7066 | drift -0.23% | fluid 118.1892 | solid 219.5173
  Impulse FP iterations last/mean/max 11/11.00/12
Step  1100/2000   55.0% | t 55.000 | ETA 2m 21s | step 0.16s | KE 338.0433 | drift -0.13% | fluid 113.1678 | solid 224.8755
  Impulse FP iterations last/mean/max 11/10.99/12
Step  1200/2000   60.0% | t 60.000 | ETA 2m 6s | step 0.16s | KE 337.6093 | drift -0.26% | fluid 119.0259 | solid 218.5834
  Impulse FP iterations last/mean/max 11/10.99/12
Step  1300/2000   65.0% | t 65.000 | ETA 1m 50s | step 0.16s | KE 337.8268 | drift -0.19% | fluid 112.6168 | solid 225.2100
  Impulse FP iterations last/mean/max 11/10.99/12
Step  1400/2000   70.0% | t 70.000 | ETA 1m 34s | step 0.16s | KE 337.6143 | drift -0.25% | fluid 116.5512 | solid 221.0631
  Impulse FP iterations last/mean/max 11/10.99/12
Step  1500/2000   75.0% | t 75.000 | ETA 1m 17s | step 0.16s | KE 337.9066 | drift -0.17% | fluid 113.1469 | solid 224.7596
  Impulse FP iterations last/mean/max 12/10.98/12
Step  1600/2000   80.0% | t 80.000 | ETA 1m 1s | step 0.11s | KE 337.6675 | drift -0.24% | fluid 117.7946 | solid 219.8729
  Impulse FP iterations last/mean/max 10/10.98/12
Step  1700/2000   85.0% | t 85.000 | ETA 45s | step 0.14s | KE 337.8253 | drift -0.19% | fluid 114.4630 | solid 223.3623
  Impulse FP iterations last/mean/max 11/10.98/12
Step  1800/2000   90.0% | t 90.000 | ETA 29s | step 0.11s | KE 337.7932 | drift -0.20% | fluid 116.0926 | solid 221.7007
  Impulse FP iterations last/mean/max 11/10.98/12
Step  1900/2000   95.0% | t 95.000 | ETA 14s | step 0.12s | KE 337.9476 | drift -0.16% | fluid 114.9844 | solid 222.9633
  Impulse FP iterations last/mean/max 11/10.98/12
Solver finished successfully - good job!
Results saved successfully.

================== Run summary ==================
  Bodies:            2
  Triangles / nodes: 256 / 516
  Timesteps:         2000  (dt = 0.05)
  Simulated time:    0 -> 100
  First-step setup:  0.365 s
  Mean time/step:    0.1465 s  (excl. first step)
  Total wall time:   4m 53s
  Impulse FP iters last/mean/max: 11 / 10.979 / 12
  Approx impulse solves/step:     10.979
  Impulse start cache hits/direct: 1999 / 1
  Impulse global drift P/H:       1.030106e-8 / 5.326155e-3
  Impulse per-body max drift P/H: 1.350572e-8 / 2.119328e-3
  CPU cores:         256 available, 8 Rayon worker thread(s)
  Started:           2026-06-24 02:30:37
  Finished:          2026-06-24 02:35:31
  Output file:       /work/e643/e643/shared/multi_ellip/studies/departing_sphericity_sweep/runs/spheroid_prolate/homogeneous/spheroid_prolate_homogeneous_eps0p3_rho1_E0p5_sep8_run09_impulse_noproj/multiple_body_complete.dat
================================================
