
================ Simulation setup ================
  Run label:         /work/e643/e643/shared/multi_ellip/studies/departing_sphericity_sweep/runs/triaxial/heterogeneous_sphere/triaxial_heterogeneous_sphere_eps0p03_rho1_E0p5_sep8_run08_impulse_noproj/
  Started:           2026-06-24 02:46:57
  Input file:        /work/e643/e643/shared/multi_ellip/studies/departing_sphericity_sweep/runs/triaxial/heterogeneous_sphere/triaxial_heterogeneous_sphere_eps0p03_rho1_E0p5_sep8_run08_impulse_noproj/input.txt
  Output file:       /work/e643/e643/shared/multi_ellip/studies/departing_sphericity_sweep/runs/triaxial/heterogeneous_sphere/triaxial_heterogeneous_sphere_eps0p03_rho1_E0p5_sep8_run08_impulse_noproj/multiple_body_complete.dat
  Bodies:            2
  Fluid density:     1
  Mesh:              ndiv 2 -> 256 triangles / 516 nodes
  Simulated time:    0 -> 100  (dt = 0.05, ~2000 steps)
  Output cadence:    every 1 step(s)
  Output rows:       ~2001
  Progress cadence:  every 100 step(s)
  CPU cores:         256 available, 8 Rayon worker thread(s)
  Strong coupling:   disabled
  Impulse scheme:    enabled
  Hamiltonian step:  disabled
  Hamiltonian midpt: disabled
  Variational step:  disabled
  Energy projection: disabled
  Projection particular metric: Euclidean
  Fluid KE gradient: disabled  (eps = 0.001, scale = 1, linear = 1, angular = 1)
  Fluid KE discrete gradient: disabled
  Impulse pair metric correction: disabled  (mode = pair discrete-gradient, cutoff = all pairs, inner/outer = 0/0, eps = 0.001, linear scale = 1, angular scale = 0)
  Impulse metric correction: disabled  (internal load constraint = disabled)
  Impulse variational defect probe: disabled
  Impulse quadratic pressure: disabled  (scale = 1)
  Added-mass stab:   disabled
  Exact BEM geometry: disabled
  Exact singular BEM: disabled
  Legacy singular SLP diagnostic: disabled
  Phi-dot blend:     0 (off)

  Solver guidance:
    - Strong coupling: use for stiff close-coupled runs; slower but more implicit.
    - Impulse scheme: use when impulse/momentum conservation or KE drift is the focus. Recommended.
    - Added-mass stab: use for higher mesh counts (ndiv > 3) to preserve stability - deprecated.
================================================
Solver starting - good luck!

Initial state:
  Body  1
    density:          1.000000
    shape axes ratio: (1.000000, 0.970874, 0.942596)
    initial KE ratio: 0.500000
    position:         (-4.000000, 0.000000, 0.000000)
    velocity:         (3.866738, 0.445562, 3.952501)
    angular velocity: (-5.962795, 1.973895, 0.165030)
    orientation:      (w=-0.064732, i=0.139417, j=-0.835273, k=-0.527912)
  Body  2
    density:          1.000000
    shape axes ratio: (1.000000, 1.000000, 1.000000)
    initial KE ratio: 0.500000
    position:         (4.000000, 0.000000, 0.000000)
    velocity:         (3.917315, 0.451390, 4.004200)
    angular velocity: (4.101654, 0.154778, -4.757194)
    orientation:      (w=-0.530226, i=-0.040498, j=0.193919, k=0.824388)

Preparing first step: implicit scheme, no bootstrap passes required.
First step may take longer than later steps.

First step completed in 0.221 s.

Step   100/2000    5.0% | t 5.000 | ETA 3m 27s | step 0.10s | KE 273.5929 | drift +2.72% | fluid 70.6499 | solid 202.9430
  Impulse FP iterations last/mean/max 8/7.90/8
Step   200/2000   10.0% | t 10.000 | ETA 3m 19s | step 0.12s | KE 281.9629 | drift +5.86% | fluid 70.4920 | solid 211.4710
  Impulse FP iterations last/mean/max 8/7.89/8
Step   300/2000   15.0% | t 15.000 | ETA 3m 8s | step 0.10s | KE 287.5573 | drift +7.96% | fluid 70.6679 | solid 216.8894
  Impulse FP iterations last/mean/max 7/7.87/8
Step   400/2000   20.0% | t 20.000 | ETA 2m 54s | step 0.10s | KE 289.9860 | drift +8.87% | fluid 70.6101 | solid 219.3758
  Impulse FP iterations last/mean/max 8/7.89/8
Step   500/2000   25.0% | t 25.000 | ETA 2m 39s | step 0.10s | KE 290.0886 | drift +8.91% | fluid 70.3487 | solid 219.7399
  Impulse FP iterations last/mean/max 8/7.88/8
Step   600/2000   30.0% | t 30.000 | ETA 2m 29s | step 0.11s | KE 289.0378 | drift +8.52% | fluid 70.3046 | solid 218.7331
  Impulse FP iterations last/mean/max 8/7.88/8
Step   700/2000   35.0% | t 35.000 | ETA 2m 20s | step 0.10s | KE 287.6419 | drift +7.99% | fluid 70.5138 | solid 217.1282
  Impulse FP iterations last/mean/max 8/7.88/8
Step   800/2000   40.0% | t 40.000 | ETA 2m 10s | step 0.12s | KE 286.6684 | drift +7.63% | fluid 70.9320 | solid 215.7364
  Impulse FP iterations last/mean/max 8/7.88/8
Step   900/2000   45.0% | t 45.000 | ETA 1m 59s | step 0.11s | KE 286.5506 | drift +7.58% | fluid 70.6636 | solid 215.8870
  Impulse FP iterations last/mean/max 8/7.88/8
Step  1000/2000   50.0% | t 50.000 | ETA 1m 49s | step 0.12s | KE 287.4051 | drift +7.90% | fluid 70.4343 | solid 216.9708
  Impulse FP iterations last/mean/max 8/7.88/8
Step  1100/2000   55.0% | t 55.000 | ETA 1m 38s | step 0.11s | KE 288.7530 | drift +8.41% | fluid 71.0299 | solid 217.7231
  Impulse FP iterations last/mean/max 7/7.87/8
Step  1200/2000   60.0% | t 60.000 | ETA 1m 27s | step 0.12s | KE 290.2296 | drift +8.96% | fluid 70.7585 | solid 219.4711
  Impulse FP iterations last/mean/max 8/7.87/8
Step  1300/2000   65.0% | t 65.000 | ETA 1m 16s | step 0.12s | KE 291.4251 | drift +9.41% | fluid 70.2418 | solid 221.1833
  Impulse FP iterations last/mean/max 8/7.88/8
Step  1400/2000   70.0% | t 70.000 | ETA 1m 6s | step 0.11s | KE 292.0252 | drift +9.64% | fluid 70.5813 | solid 221.4438
  Impulse FP iterations last/mean/max 8/7.87/8
Step  1500/2000   75.0% | t 75.000 | ETA 55s | step 0.12s | KE 292.1623 | drift +9.69% | fluid 70.9280 | solid 221.2342
  Impulse FP iterations last/mean/max 8/7.87/8
Step  1600/2000   80.0% | t 80.000 | ETA 44s | step 0.11s | KE 291.9896 | drift +9.63% | fluid 70.9474 | solid 221.0422
  Impulse FP iterations last/mean/max 8/7.87/8
Step  1700/2000   85.0% | t 85.000 | ETA 33s | step 0.11s | KE 291.6948 | drift +9.51% | fluid 70.7284 | solid 220.9664
  Impulse FP iterations last/mean/max 8/7.87/8
Step  1800/2000   90.0% | t 90.000 | ETA 22s | step 0.11s | KE 291.5342 | drift +9.45% | fluid 70.1245 | solid 221.4098
  Impulse FP iterations last/mean/max 8/7.88/8
Step  1900/2000   95.0% | t 95.000 | ETA 11s | step 0.11s | KE 291.4687 | drift +9.43% | fluid 70.6217 | solid 220.8470
  Impulse FP iterations last/mean/max 8/7.87/8
Solver finished successfully - good job!
Results saved successfully.

================== Run summary ==================
  Bodies:            2
  Triangles / nodes: 256 / 516
  Timesteps:         2000  (dt = 0.05)
  Simulated time:    0 -> 100
  First-step setup:  0.221 s
  Mean time/step:    0.1107 s  (excl. first step)
  Total wall time:   3m 41s
  Impulse FP iters last/mean/max: 8 / 7.875 / 8
  Approx impulse solves/step:     7.876
  Impulse start cache hits/direct: 1999 / 1
  Impulse global drift P/H:       1.563098e-8 / 4.640802e-2
  Impulse per-body max drift P/H: 3.262025e-8 / 4.005664e-3
  CPU cores:         256 available, 8 Rayon worker thread(s)
  Started:           2026-06-24 02:46:57
  Finished:          2026-06-24 02:50:39
  Output file:       /work/e643/e643/shared/multi_ellip/studies/departing_sphericity_sweep/runs/triaxial/heterogeneous_sphere/triaxial_heterogeneous_sphere_eps0p03_rho1_E0p5_sep8_run08_impulse_noproj/multiple_body_complete.dat
================================================
