
================ Simulation setup ================
  Run label:         /work/e643/e643/shared/multi_ellip/studies/two_body_paper_sweeps/runs/ellipsoid_1_0p8_0p6/ellipsoid_1_0p8_0p6_rho1_E11_sep8_run05_impulse_noproj/
  Started:           2026-06-24 01:44:18
  Input file:        /work/e643/e643/shared/multi_ellip/studies/two_body_paper_sweeps/runs/ellipsoid_1_0p8_0p6/ellipsoid_1_0p8_0p6_rho1_E11_sep8_run05_impulse_noproj/input.txt
  Output file:       /work/e643/e643/shared/multi_ellip/studies/two_body_paper_sweeps/runs/ellipsoid_1_0p8_0p6/ellipsoid_1_0p8_0p6_rho1_E11_sep8_run05_impulse_noproj/multiple_body_complete.dat
  Bodies:            2
  Fluid density:     1
  Mesh:              ndiv 2 -> 256 triangles / 516 nodes
  Simulated time:    0 -> 100  (dt = 0.05, ~2000 steps)
  Output cadence:    every 1 step(s)
  Output rows:       ~2001
  Progress cadence:  every 100 step(s)
  CPU cores:         256 available, 8 Rayon worker thread(s)
  Strong coupling:   disabled
  Impulse scheme:    enabled
  Hamiltonian step:  disabled
  Hamiltonian midpt: disabled
  Variational step:  disabled
  Energy projection: disabled
  Projection particular metric: Euclidean
  Fluid KE gradient: disabled  (eps = 0.001, scale = 1, linear = 1, angular = 1)
  Fluid KE discrete gradient: disabled
  Impulse pair metric correction: disabled  (mode = pair discrete-gradient, cutoff = all pairs, inner/outer = 0/0, eps = 0.001, linear scale = 1, angular scale = 0)
  Impulse metric correction: disabled  (internal load constraint = disabled)
  Impulse variational defect probe: disabled
  Impulse quadratic pressure: disabled  (scale = 1)
  Added-mass stab:   disabled
  Exact BEM geometry: disabled
  Exact singular BEM: disabled
  Legacy singular SLP diagnostic: disabled
  Phi-dot blend:     0 (off)

  Solver guidance:
    - Strong coupling: use for stiff close-coupled runs; slower but more implicit.
    - Impulse scheme: use when impulse/momentum conservation or KE drift is the focus. Recommended.
    - Added-mass stab: use for higher mesh counts (ndiv > 3) to preserve stability - deprecated.
================================================
Solver starting - good luck!

Initial state:
  Body  1
    density:          1.000000
    shape axes ratio: (1.000000, 0.800000, 0.600000)
    initial KE ratio: 11.000000
    position:         (-4.000000, 0.000000, 0.000000)
    velocity:         (-0.948225, -0.935023, -0.299510)
    angular velocity: (1.716423, -0.376098, -6.032484)
    orientation:      (w=0.593500, i=-0.052030, j=-0.765310, k=0.243621)
  Body  2
    density:          1.000000
    shape axes ratio: (1.000000, 0.800000, 0.600000)
    initial KE ratio: 11.000000
    position:         (4.000000, 0.000000, 0.000000)
    velocity:         (-0.949253, -0.936036, -0.299835)
    angular velocity: (0.512705, -2.405854, 5.781645)
    orientation:      (w=0.214518, i=0.372013, j=-0.241612, k=-0.870179)

Preparing first step: implicit scheme, no bootstrap passes required.
First step may take longer than later steps.

First step completed in 0.270 s.

Step   100/2000    5.0% | t 5.000 | ETA 4m 40s | step 0.15s | KE 84.6473 | drift -0.02% | fluid 8.3157 | solid 76.3317
  Impulse FP iterations last/mean/max 11/10.88/12
Step   200/2000   10.0% | t 10.000 | ETA 4m 32s | step 0.14s | KE 84.6804 | drift +0.02% | fluid 11.5399 | solid 73.1405
  Impulse FP iterations last/mean/max 11/10.93/12
Step   300/2000   15.0% | t 15.000 | ETA 4m 17s | step 0.15s | KE 84.6565 | drift -0.01% | fluid 12.5570 | solid 72.0995
  Impulse FP iterations last/mean/max 11/10.91/12
Step   400/2000   20.0% | t 20.000 | ETA 4m 2s | step 0.16s | KE 84.6516 | drift -0.01% | fluid 8.7997 | solid 75.8519
  Impulse FP iterations last/mean/max 11/10.87/12
Step   500/2000   25.0% | t 25.000 | ETA 3m 47s | step 0.16s | KE 84.6636 | drift +0.00% | fluid 10.1891 | solid 74.4744
  Impulse FP iterations last/mean/max 11/10.86/12
Step   600/2000   30.0% | t 30.000 | ETA 3m 32s | step 0.15s | KE 84.7231 | drift +0.07% | fluid 12.1312 | solid 72.5920
  Impulse FP iterations last/mean/max 10/10.85/12
Step   700/2000   35.0% | t 35.000 | ETA 3m 17s | step 0.15s | KE 84.6668 | drift +0.01% | fluid 10.7383 | solid 73.9285
  Impulse FP iterations last/mean/max 11/10.85/12
Step   800/2000   40.0% | t 40.000 | ETA 3m 2s | step 0.15s | KE 84.7163 | drift +0.06% | fluid 8.3680 | solid 76.3482
  Impulse FP iterations last/mean/max 11/10.85/12
Step   900/2000   45.0% | t 45.000 | ETA 2m 47s | step 0.16s | KE 84.7076 | drift +0.05% | fluid 12.6292 | solid 72.0785
  Impulse FP iterations last/mean/max 11/10.83/12
Step  1000/2000   50.0% | t 50.000 | ETA 2m 31s | step 0.15s | KE 84.7081 | drift +0.05% | fluid 12.1979 | solid 72.5103
  Impulse FP iterations last/mean/max 11/10.83/12
Step  1100/2000   55.0% | t 55.000 | ETA 2m 16s | step 0.16s | KE 84.7078 | drift +0.05% | fluid 8.5106 | solid 76.1971
  Impulse FP iterations last/mean/max 11/10.82/12
Step  1200/2000   60.0% | t 60.000 | ETA 2m 1s | step 0.16s | KE 84.7436 | drift +0.10% | fluid 10.3998 | solid 74.3438
  Impulse FP iterations last/mean/max 11/10.81/12
Step  1300/2000   65.0% | t 65.000 | ETA 1m 46s | step 0.16s | KE 84.6879 | drift +0.03% | fluid 12.6449 | solid 72.0430
  Impulse FP iterations last/mean/max 11/10.81/12
Step  1400/2000   70.0% | t 70.000 | ETA 1m 31s | step 0.16s | KE 84.7374 | drift +0.09% | fluid 9.7390 | solid 74.9983
  Impulse FP iterations last/mean/max 11/10.81/12
Step  1500/2000   75.0% | t 75.000 | ETA 1m 15s | step 0.15s | KE 84.7496 | drift +0.10% | fluid 8.5873 | solid 76.1623
  Impulse FP iterations last/mean/max 11/10.81/12
Step  1600/2000   80.0% | t 80.000 | ETA 1m 0s | step 0.15s | KE 84.6631 | drift +0.00% | fluid 13.2310 | solid 71.4321
  Impulse FP iterations last/mean/max 11/10.80/12
Step  1700/2000   85.0% | t 85.000 | ETA 45s | step 0.15s | KE 84.7450 | drift +0.10% | fluid 11.7781 | solid 72.9668
  Impulse FP iterations last/mean/max 11/10.81/12
Step  1800/2000   90.0% | t 90.000 | ETA 30s | step 0.17s | KE 84.7357 | drift +0.09% | fluid 8.0618 | solid 76.6739
  Impulse FP iterations last/mean/max 11/10.80/12
Step  1900/2000   95.0% | t 95.000 | ETA 15s | step 0.15s | KE 84.7114 | drift +0.06% | fluid 10.8980 | solid 73.8134
  Impulse FP iterations last/mean/max 11/10.80/12
Solver finished successfully - good job!
Results saved successfully.

================== Run summary ==================
  Bodies:            2
  Triangles / nodes: 256 / 516
  Timesteps:         2000  (dt = 0.05)
  Simulated time:    0 -> 100
  First-step setup:  0.270 s
  Mean time/step:    0.1516 s  (excl. first step)
  Total wall time:   5m 3s
  Impulse FP iters last/mean/max: 11 / 10.802 / 12
  Approx impulse solves/step:     10.802
  Impulse start cache hits/direct: 1999 / 1
  Impulse global drift P/H:       1.950188e-8 / 9.882476e-3
  Impulse per-body max drift P/H: 2.389682e-8 / 1.401925e-2
  CPU cores:         256 available, 8 Rayon worker thread(s)
  Started:           2026-06-24 01:44:18
  Finished:          2026-06-24 01:49:21
  Output file:       /work/e643/e643/shared/multi_ellip/studies/two_body_paper_sweeps/runs/ellipsoid_1_0p8_0p6/ellipsoid_1_0p8_0p6_rho1_E11_sep8_run05_impulse_noproj/multiple_body_complete.dat
================================================
