
================ Simulation setup ================
  Run label:         /work/e643/e643/shared/multi_ellip/studies/two_body_paper_sweeps/runs/ellipsoid_1_0p8_0p6/ellipsoid_1_0p8_0p6_rho0p1_E30_sep5_run02_impulse_noproj/
  Started:           2026-06-22 20:03:25
  Input file:        /work/e643/e643/shared/multi_ellip/studies/two_body_paper_sweeps/runs/ellipsoid_1_0p8_0p6/ellipsoid_1_0p8_0p6_rho0p1_E30_sep5_run02_impulse_noproj/input.txt
  Output file:       /work/e643/e643/shared/multi_ellip/studies/two_body_paper_sweeps/runs/ellipsoid_1_0p8_0p6/ellipsoid_1_0p8_0p6_rho0p1_E30_sep5_run02_impulse_noproj/multiple_body_complete.dat
  Bodies:            2
  Fluid density:     1
  Mesh:              ndiv 2 -> 256 triangles / 516 nodes
  Simulated time:    0 -> 100  (dt = 0.05, ~2000 steps)
  Output cadence:    every 1 step(s)
  Output rows:       ~2001
  Progress cadence:  every 100 step(s)
  CPU cores:         256 available, 8 Rayon worker thread(s)
  Strong coupling:   disabled
  Impulse scheme:    enabled
  Hamiltonian step:  disabled
  Hamiltonian midpt: disabled
  Variational step:  disabled
  Energy projection: disabled
  Projection particular metric: Euclidean
  Fluid KE gradient: disabled  (eps = 0.001, scale = 1, linear = 1, angular = 1)
  Fluid KE discrete gradient: disabled
  Impulse pair metric correction: disabled  (mode = pair discrete-gradient, cutoff = all pairs, inner/outer = 0/0, eps = 0.001, linear scale = 1, angular scale = 0)
  Impulse metric correction: disabled  (internal load constraint = disabled)
  Impulse variational defect probe: disabled
  Impulse quadratic pressure: disabled  (scale = 1)
  Added-mass stab:   disabled
  Exact BEM geometry: disabled
  Exact singular BEM: disabled
  Legacy singular SLP diagnostic: disabled
  Phi-dot blend:     0 (off)

  Solver guidance:
    - Strong coupling: use for stiff close-coupled runs; slower but more implicit.
    - Impulse scheme: use when impulse/momentum conservation or KE drift is the focus. Recommended.
    - Added-mass stab: use for higher mesh counts (ndiv > 3) to preserve stability - deprecated.
================================================
Solver starting - good luck!

Initial state:
  Body  1
    density:          0.100000
    shape axes ratio: (1.000000, 0.800000, 0.600000)
    initial KE ratio: 30.000000
    position:         (-2.500000, 0.000000, 0.000000)
    velocity:         (0.173492, -0.720175, 0.058048)
    angular velocity: (-3.117583, -5.261972, -1.439010)
    orientation:      (w=0.577350, i=0.577350, j=0.577350, k=0.000000)
  Body  2
    density:          0.100000
    shape axes ratio: (1.000000, 0.800000, 0.600000)
    initial KE ratio: 30.000000
    position:         (2.500000, 0.000000, 0.000000)
    velocity:         (0.155803, -0.646747, 0.052129)
    angular velocity: (5.971038, 1.871237, 0.568856)
    orientation:      (w=0.577350, i=-0.577350, j=0.000000, k=0.577350)

Preparing first step: implicit scheme, no bootstrap passes required.
First step may take longer than later steps.

First step completed in 0.346 s.

Step   100/2000    5.0% | t 5.000 | ETA 7m 51s | step 0.25s | KE 18.0027 | drift +0.03% | fluid 9.8396 | solid 8.1631
  Impulse FP iterations last/mean/max 19/19.64/22
Step   200/2000   10.0% | t 10.000 | ETA 7m 37s | step 0.22s | KE 18.0370 | drift +0.22% | fluid 10.8746 | solid 7.1624
  Impulse FP iterations last/mean/max 18/19.73/22
Step   300/2000   15.0% | t 15.000 | ETA 7m 18s | step 0.27s | KE 18.2467 | drift +1.38% | fluid 10.8788 | solid 7.3680
  Impulse FP iterations last/mean/max 21/19.93/22
Step   400/2000   20.0% | t 20.000 | ETA 6m 52s | step 0.23s | KE 18.6792 | drift +3.78% | fluid 10.7779 | solid 7.9013
  Impulse FP iterations last/mean/max 20/19.91/22
Step   500/2000   25.0% | t 25.000 | ETA 6m 25s | step 0.28s | KE 18.4989 | drift +2.78% | fluid 11.1158 | solid 7.3831
  Impulse FP iterations last/mean/max 22/19.97/23
Step   600/2000   30.0% | t 30.000 | ETA 5m 56s | step 0.25s | KE 18.4224 | drift +2.36% | fluid 11.0574 | solid 7.3650
  Impulse FP iterations last/mean/max 22/20.03/23
Step   700/2000   35.0% | t 35.000 | ETA 5m 28s | step 0.25s | KE 17.8559 | drift -0.79% | fluid 10.9216 | solid 6.9343
  Impulse FP iterations last/mean/max 20/19.99/23
Step   800/2000   40.0% | t 40.000 | ETA 5m 1s | step 0.23s | KE 17.5963 | drift -2.23% | fluid 10.9976 | solid 6.5988
  Impulse FP iterations last/mean/max 20/19.99/23
Step   900/2000   45.0% | t 45.000 | ETA 4m 33s | step 0.22s | KE 17.2197 | drift -4.32% | fluid 9.8470 | solid 7.3726
  Impulse FP iterations last/mean/max 19/19.95/23
Step  1000/2000   50.0% | t 50.000 | ETA 4m 6s | step 0.22s | KE 17.2720 | drift -4.03% | fluid 10.5042 | solid 6.7677
  Impulse FP iterations last/mean/max 19/19.92/23
Step  1100/2000   55.0% | t 55.000 | ETA 3m 40s | step 0.26s | KE 17.3857 | drift -3.40% | fluid 10.3749 | solid 7.0107
  Impulse FP iterations last/mean/max 20/19.88/23
Step  1200/2000   60.0% | t 60.000 | ETA 3m 14s | step 0.25s | KE 17.7711 | drift -1.26% | fluid 10.9138 | solid 6.8573
  Impulse FP iterations last/mean/max 20/19.87/23
Step  1300/2000   65.0% | t 65.000 | ETA 2m 49s | step 0.20s | KE 17.9401 | drift -0.32% | fluid 10.3987 | solid 7.5414
  Impulse FP iterations last/mean/max 18/19.85/23
Step  1400/2000   70.0% | t 70.000 | ETA 2m 25s | step 0.24s | KE 18.3051 | drift +1.71% | fluid 11.5517 | solid 6.7534
  Impulse FP iterations last/mean/max 21/19.84/23
Step  1500/2000   75.0% | t 75.000 | ETA 2m 0s | step 0.21s | KE 18.4836 | drift +2.70% | fluid 10.5077 | solid 7.9759
  Impulse FP iterations last/mean/max 19/19.82/23
Step  1600/2000   80.0% | t 80.000 | ETA 1m 36s | step 0.21s | KE 18.7755 | drift +4.32% | fluid 11.5025 | solid 7.2730
  Impulse FP iterations last/mean/max 19/19.81/23
Step  1700/2000   85.0% | t 85.000 | ETA 1m 12s | step 0.21s | KE 18.8825 | drift +4.91% | fluid 11.4140 | solid 7.4685
  Impulse FP iterations last/mean/max 19/19.79/23
Step  1800/2000   90.0% | t 90.000 | ETA 47s | step 0.24s | KE 19.0357 | drift +5.77% | fluid 11.2181 | solid 7.8176
  Impulse FP iterations last/mean/max 22/19.79/23
Step  1900/2000   95.0% | t 95.000 | ETA 23s | step 0.22s | KE 19.1664 | drift +6.49% | fluid 11.5896 | solid 7.5769
  Impulse FP iterations last/mean/max 21/19.78/23
Solver finished successfully - good job!
Results saved successfully.

================== Run summary ==================
  Bodies:            2
  Triangles / nodes: 256 / 516
  Timesteps:         2000  (dt = 0.05)
  Simulated time:    0 -> 100
  First-step setup:  0.346 s
  Mean time/step:    0.2373 s  (excl. first step)
  Total wall time:   7m 54s
  Impulse FP iters last/mean/max: 19 / 19.775 / 23
  Approx impulse solves/step:     19.775
  Impulse start cache hits/direct: 1999 / 1
  Impulse global drift P/H:       4.435526e-8 / 2.665754e-2
  Impulse per-body max drift P/H: 4.908028e-8 / 5.996917e-3
  CPU cores:         256 available, 8 Rayon worker thread(s)
  Started:           2026-06-22 20:03:25
  Finished:          2026-06-22 20:11:20
  Output file:       /work/e643/e643/shared/multi_ellip/studies/two_body_paper_sweeps/runs/ellipsoid_1_0p8_0p6/ellipsoid_1_0p8_0p6_rho0p1_E30_sep5_run02_impulse_noproj/multiple_body_complete.dat
================================================
