
================ Simulation setup ================
  Run label:         /work/e643/e643/shared/multi_ellip/studies/departing_sphericity_sweep/runs/triaxial/heterogeneous_sphere/triaxial_heterogeneous_sphere_eps0p1_rho1_E0p5_sep8_run07_impulse_noproj/
  Started:           2026-06-24 02:46:58
  Input file:        /work/e643/e643/shared/multi_ellip/studies/departing_sphericity_sweep/runs/triaxial/heterogeneous_sphere/triaxial_heterogeneous_sphere_eps0p1_rho1_E0p5_sep8_run07_impulse_noproj/input.txt
  Output file:       /work/e643/e643/shared/multi_ellip/studies/departing_sphericity_sweep/runs/triaxial/heterogeneous_sphere/triaxial_heterogeneous_sphere_eps0p1_rho1_E0p5_sep8_run07_impulse_noproj/multiple_body_complete.dat
  Bodies:            2
  Fluid density:     1
  Mesh:              ndiv 2 -> 256 triangles / 516 nodes
  Simulated time:    0 -> 100  (dt = 0.05, ~2000 steps)
  Output cadence:    every 1 step(s)
  Output rows:       ~2001
  Progress cadence:  every 100 step(s)
  CPU cores:         256 available, 8 Rayon worker thread(s)
  Strong coupling:   disabled
  Impulse scheme:    enabled
  Hamiltonian step:  disabled
  Hamiltonian midpt: disabled
  Variational step:  disabled
  Energy projection: disabled
  Projection particular metric: Euclidean
  Fluid KE gradient: disabled  (eps = 0.001, scale = 1, linear = 1, angular = 1)
  Fluid KE discrete gradient: disabled
  Impulse pair metric correction: disabled  (mode = pair discrete-gradient, cutoff = all pairs, inner/outer = 0/0, eps = 0.001, linear scale = 1, angular scale = 0)
  Impulse metric correction: disabled  (internal load constraint = disabled)
  Impulse variational defect probe: disabled
  Impulse quadratic pressure: disabled  (scale = 1)
  Added-mass stab:   disabled
  Exact BEM geometry: disabled
  Exact singular BEM: disabled
  Legacy singular SLP diagnostic: disabled
  Phi-dot blend:     0 (off)

  Solver guidance:
    - Strong coupling: use for stiff close-coupled runs; slower but more implicit.
    - Impulse scheme: use when impulse/momentum conservation or KE drift is the focus. Recommended.
    - Added-mass stab: use for higher mesh counts (ndiv > 3) to preserve stability - deprecated.
================================================
Solver starting - good luck!

Initial state:
  Body  1
    density:          1.000000
    shape axes ratio: (1.000000, 0.909091, 0.826446)
    initial KE ratio: 0.500000
    position:         (-4.000000, 0.000000, 0.000000)
    velocity:         (0.873833, -5.183445, -2.160488)
    angular velocity: (-3.840348, 2.202673, -4.458517)
    orientation:      (w=0.234409, i=-0.487601, j=-0.209602, k=0.814472)
  Body  2
    density:          1.000000
    shape axes ratio: (1.000000, 1.000000, 1.000000)
    initial KE ratio: 0.500000
    position:         (4.000000, 0.000000, 0.000000)
    velocity:         (0.864084, -5.125617, -2.136385)
    angular velocity: (-0.238065, -3.712533, 5.063481)
    orientation:      (w=0.699122, i=-0.603461, j=-0.310810, k=0.224633)

Preparing first step: implicit scheme, no bootstrap passes required.
First step may take longer than later steps.

First step completed in 0.277 s.

Step   100/2000    5.0% | t 5.000 | ETA 4m 0s | step 0.12s | KE 272.3451 | drift +0.63% | fluid 74.2479 | solid 198.0972
  Impulse FP iterations last/mean/max 9/8.98/9
Step   200/2000   10.0% | t 10.000 | ETA 3m 49s | step 0.14s | KE 279.7540 | drift +3.37% | fluid 73.9939 | solid 205.7601
  Impulse FP iterations last/mean/max 9/8.97/9
Step   300/2000   15.0% | t 15.000 | ETA 3m 38s | step 0.13s | KE 293.1688 | drift +8.33% | fluid 73.4312 | solid 219.7376
  Impulse FP iterations last/mean/max 9/8.98/9
Step   400/2000   20.0% | t 20.000 | ETA 3m 25s | step 0.13s | KE 309.6226 | drift +14.41% | fluid 73.3635 | solid 236.2591
  Impulse FP iterations last/mean/max 9/8.98/9
Step   500/2000   25.0% | t 25.000 | ETA 3m 13s | step 0.13s | KE 326.8540 | drift +20.77% | fluid 74.0842 | solid 252.7699
  Impulse FP iterations last/mean/max 9/8.99/9
Step   600/2000   30.0% | t 30.000 | ETA 3m 0s | step 0.13s | KE 343.1525 | drift +26.80% | fluid 73.0712 | solid 270.0813
  Impulse FP iterations last/mean/max 9/8.99/9
Step   700/2000   35.0% | t 35.000 | ETA 2m 47s | step 0.13s | KE 356.3220 | drift +31.66% | fluid 74.2919 | solid 282.0301
  Impulse FP iterations last/mean/max 9/8.99/9
Step   800/2000   40.0% | t 40.000 | ETA 2m 34s | step 0.12s | KE 366.8428 | drift +35.55% | fluid 73.3897 | solid 293.4531
  Impulse FP iterations last/mean/max 9/8.99/9
Step   900/2000   45.0% | t 45.000 | ETA 2m 21s | step 0.13s | KE 374.0108 | drift +38.20% | fluid 73.7864 | solid 300.2244
  Impulse FP iterations last/mean/max 9/8.99/10
Step  1000/2000   50.0% | t 50.000 | ETA 2m 8s | step 0.13s | KE 378.7414 | drift +39.95% | fluid 73.8871 | solid 304.8543
  Impulse FP iterations last/mean/max 9/8.99/10
Step  1100/2000   55.0% | t 55.000 | ETA 1m 56s | step 0.12s | KE 381.9016 | drift +41.11% | fluid 73.3715 | solid 308.5301
  Impulse FP iterations last/mean/max 9/8.99/10
Step  1200/2000   60.0% | t 60.000 | ETA 1m 43s | step 0.13s | KE 383.3728 | drift +41.66% | fluid 74.0187 | solid 309.3541
  Impulse FP iterations last/mean/max 9/8.99/10
Step  1300/2000   65.0% | t 65.000 | ETA 1m 30s | step 0.13s | KE 384.3108 | drift +42.00% | fluid 73.2014 | solid 311.1094
  Impulse FP iterations last/mean/max 9/8.99/10
Step  1400/2000   70.0% | t 70.000 | ETA 1m 17s | step 0.13s | KE 384.5509 | drift +42.09% | fluid 74.4155 | solid 310.1354
  Impulse FP iterations last/mean/max 9/8.99/10
Step  1500/2000   75.0% | t 75.000 | ETA 1m 4s | step 0.13s | KE 385.1524 | drift +42.31% | fluid 73.5276 | solid 311.6248
  Impulse FP iterations last/mean/max 9/8.99/10
Step  1600/2000   80.0% | t 80.000 | ETA 51s | step 0.13s | KE 385.5986 | drift +42.48% | fluid 74.0037 | solid 311.5949
  Impulse FP iterations last/mean/max 9/8.99/10
Step  1700/2000   85.0% | t 85.000 | ETA 38s | step 0.14s | KE 386.6822 | drift +42.88% | fluid 73.5890 | solid 313.0932
  Impulse FP iterations last/mean/max 9/8.99/10
Step  1800/2000   90.0% | t 90.000 | ETA 25s | step 0.09s | KE 388.0716 | drift +43.39% | fluid 74.5875 | solid 313.4841
  Impulse FP iterations last/mean/max 9/8.99/10
Step  1900/2000   95.0% | t 95.000 | ETA 12s | step 0.09s | KE 390.2869 | drift +44.21% | fluid 73.2905 | solid 316.9964
  Impulse FP iterations last/mean/max 9/8.99/10
Solver finished successfully - good job!
Results saved successfully.

================== Run summary ==================
  Bodies:            2
  Triangles / nodes: 256 / 516
  Timesteps:         2000  (dt = 0.05)
  Simulated time:    0 -> 100
  First-step setup:  0.277 s
  Mean time/step:    0.1253 s  (excl. first step)
  Total wall time:   4m 10s
  Impulse FP iters last/mean/max: 9 / 8.990 / 10
  Approx impulse solves/step:     8.991
  Impulse start cache hits/direct: 1999 / 1
  Impulse global drift P/H:       1.152119e-8 / 5.281555e-2
  Impulse per-body max drift P/H: 2.536212e-8 / 4.041941e-3
  CPU cores:         256 available, 8 Rayon worker thread(s)
  Started:           2026-06-24 02:46:58
  Finished:          2026-06-24 02:51:09
  Output file:       /work/e643/e643/shared/multi_ellip/studies/departing_sphericity_sweep/runs/triaxial/heterogeneous_sphere/triaxial_heterogeneous_sphere_eps0p1_rho1_E0p5_sep8_run07_impulse_noproj/multiple_body_complete.dat
================================================
