
================ Simulation setup ================
  Run label:         /work/e643/e643/shared/multi_ellip/studies/departing_sphericity_sweep/runs/spheroid_prolate/homogeneous/spheroid_prolate_homogeneous_eps1_rho1_E0p5_sep8_run10_impulse_noproj/
  Started:           2026-06-24 02:36:39
  Input file:        /work/e643/e643/shared/multi_ellip/studies/departing_sphericity_sweep/runs/spheroid_prolate/homogeneous/spheroid_prolate_homogeneous_eps1_rho1_E0p5_sep8_run10_impulse_noproj/input.txt
  Output file:       /work/e643/e643/shared/multi_ellip/studies/departing_sphericity_sweep/runs/spheroid_prolate/homogeneous/spheroid_prolate_homogeneous_eps1_rho1_E0p5_sep8_run10_impulse_noproj/multiple_body_complete.dat
  Bodies:            2
  Fluid density:     1
  Mesh:              ndiv 2 -> 256 triangles / 516 nodes
  Simulated time:    0 -> 100  (dt = 0.05, ~2000 steps)
  Output cadence:    every 1 step(s)
  Output rows:       ~2001
  Progress cadence:  every 100 step(s)
  CPU cores:         256 available, 8 Rayon worker thread(s)
  Strong coupling:   disabled
  Impulse scheme:    enabled
  Hamiltonian step:  disabled
  Hamiltonian midpt: disabled
  Variational step:  disabled
  Energy projection: disabled
  Projection particular metric: Euclidean
  Fluid KE gradient: disabled  (eps = 0.001, scale = 1, linear = 1, angular = 1)
  Fluid KE discrete gradient: disabled
  Impulse pair metric correction: disabled  (mode = pair discrete-gradient, cutoff = all pairs, inner/outer = 0/0, eps = 0.001, linear scale = 1, angular scale = 0)
  Impulse metric correction: disabled  (internal load constraint = disabled)
  Impulse variational defect probe: disabled
  Impulse quadratic pressure: disabled  (scale = 1)
  Added-mass stab:   disabled
  Exact BEM geometry: disabled
  Exact singular BEM: disabled
  Legacy singular SLP diagnostic: disabled
  Phi-dot blend:     0 (off)

  Solver guidance:
    - Strong coupling: use for stiff close-coupled runs; slower but more implicit.
    - Impulse scheme: use when impulse/momentum conservation or KE drift is the focus. Recommended.
    - Added-mass stab: use for higher mesh counts (ndiv > 3) to preserve stability - deprecated.
================================================
Solver starting - good luck!

Initial state:
  Body  1
    density:          1.000000
    shape axes ratio: (1.000000, 0.125000, 0.125000)
    initial KE ratio: 0.500000
    position:         (-4.000000, 0.000000, 0.000000)
    velocity:         (2.243010, -4.453978, -8.702515)
    angular velocity: (-4.976244, 3.818322, -0.368555)
    orientation:      (w=0.639043, i=-0.452603, j=0.211787, k=0.584740)
  Body  2
    density:          1.000000
    shape axes ratio: (1.000000, 0.125000, 0.125000)
    initial KE ratio: 0.500000
    position:         (4.000000, 0.000000, 0.000000)
    velocity:         (3.204640, -6.363501, -12.433483)
    angular velocity: (-2.852299, -4.505303, -3.323410)
    orientation:      (w=0.467462, i=-0.606963, j=-0.624744, k=0.150898)

Preparing first step: implicit scheme, no bootstrap passes required.
First step may take longer than later steps.

First step completed in 0.300 s.

Step   100/2000    5.0% | t 5.000 | ETA 6m 24s | step 0.20s | KE 1606.2556 | drift +0.17% | fluid 606.5622 | solid 999.6934
  Impulse FP iterations last/mean/max 14/13.84/16
Step   200/2000   10.0% | t 10.000 | ETA 6m 2s | step 0.21s | KE 1604.8078 | drift +0.08% | fluid 613.5938 | solid 991.2140
  Impulse FP iterations last/mean/max 14/13.77/16
Step   300/2000   15.0% | t 15.000 | ETA 5m 42s | step 0.20s | KE 1600.9398 | drift -0.16% | fluid 749.8276 | solid 851.1122
  Impulse FP iterations last/mean/max 13/13.75/16
Step   400/2000   20.0% | t 20.000 | ETA 5m 22s | step 0.21s | KE 1607.2757 | drift +0.24% | fluid 612.2018 | solid 995.0739
  Impulse FP iterations last/mean/max 14/13.76/16
Step   500/2000   25.0% | t 25.000 | ETA 5m 2s | step 0.20s | KE 1600.8147 | drift -0.17% | fluid 765.3870 | solid 835.4277
  Impulse FP iterations last/mean/max 14/13.76/16
Step   600/2000   30.0% | t 30.000 | ETA 4m 39s | step 0.17s | KE 1603.6834 | drift +0.01% | fluid 682.4800 | solid 921.2033
  Impulse FP iterations last/mean/max 13/13.76/16
Step   700/2000   35.0% | t 35.000 | ETA 4m 15s | step 0.18s | KE 1605.5729 | drift +0.13% | fluid 657.5977 | solid 947.9752
  Impulse FP iterations last/mean/max 13/13.75/16
Step   800/2000   40.0% | t 40.000 | ETA 3m 51s | step 0.13s | KE 1601.2927 | drift -0.14% | fluid 751.2636 | solid 850.0290
  Impulse FP iterations last/mean/max 13/13.76/16
Step   900/2000   45.0% | t 45.000 | ETA 3m 26s | step 0.13s | KE 1606.1735 | drift +0.17% | fluid 570.5357 | solid 1035.6378
  Impulse FP iterations last/mean/max 14/13.76/16
Step  1000/2000   50.0% | t 50.000 | ETA 3m 1s | step 0.12s | KE 1602.6407 | drift -0.05% | fluid 690.5000 | solid 912.1407
  Impulse FP iterations last/mean/max 13/13.76/16
Step  1100/2000   55.0% | t 55.000 | ETA 2m 39s | step 0.13s | KE 1606.0135 | drift +0.16% | fluid 580.7232 | solid 1025.2903
  Impulse FP iterations last/mean/max 14/13.75/16
Step  1200/2000   60.0% | t 60.000 | ETA 2m 18s | step 0.13s | KE 1606.1826 | drift +0.17% | fluid 541.7437 | solid 1064.4389
  Impulse FP iterations last/mean/max 14/13.74/16
Step  1300/2000   65.0% | t 65.000 | ETA 1m 58s | step 0.13s | KE 1601.8823 | drift -0.10% | fluid 633.5191 | solid 968.3631
  Impulse FP iterations last/mean/max 14/13.74/16
Step  1400/2000   70.0% | t 70.000 | ETA 1m 39s | step 0.12s | KE 1609.5380 | drift +0.38% | fluid 467.0286 | solid 1142.5094
  Impulse FP iterations last/mean/max 13/13.73/16
Step  1500/2000   75.0% | t 75.000 | ETA 1m 21s | step 0.12s | KE 1602.4125 | drift -0.07% | fluid 603.5050 | solid 998.9075
  Impulse FP iterations last/mean/max 13/13.73/16
Step  1600/2000   80.0% | t 80.000 | ETA 1m 4s | step 0.12s | KE 1606.0799 | drift +0.16% | fluid 520.8960 | solid 1085.1839
  Impulse FP iterations last/mean/max 13/13.73/16
Step  1700/2000   85.0% | t 85.000 | ETA 47s | step 0.13s | KE 1607.0644 | drift +0.22% | fluid 513.2133 | solid 1093.8511
  Impulse FP iterations last/mean/max 14/13.73/16
Step  1800/2000   90.0% | t 90.000 | ETA 31s | step 0.13s | KE 1602.9215 | drift -0.04% | fluid 637.8508 | solid 965.0706
  Impulse FP iterations last/mean/max 14/13.73/16
Step  1900/2000   95.0% | t 95.000 | ETA 15s | step 0.13s | KE 1606.9084 | drift +0.21% | fluid 499.8565 | solid 1107.0519
  Impulse FP iterations last/mean/max 14/13.74/16
Solver finished successfully - good job!
Results saved successfully.

================== Run summary ==================
  Bodies:            2
  Triangles / nodes: 256 / 516
  Timesteps:         2000  (dt = 0.05)
  Simulated time:    0 -> 100
  First-step setup:  0.300 s
  Mean time/step:    0.1538 s  (excl. first step)
  Total wall time:   5m 7s
  Impulse FP iters last/mean/max: 13 / 13.733 / 16
  Approx impulse solves/step:     13.734
  Impulse start cache hits/direct: 1999 / 1
  Impulse global drift P/H:       5.598692e-9 / 4.583850e-3
  Impulse per-body max drift P/H: 7.046459e-9 / 2.818890e-3
  CPU cores:         256 available, 8 Rayon worker thread(s)
  Started:           2026-06-24 02:36:39
  Finished:          2026-06-24 02:41:47
  Output file:       /work/e643/e643/shared/multi_ellip/studies/departing_sphericity_sweep/runs/spheroid_prolate/homogeneous/spheroid_prolate_homogeneous_eps1_rho1_E0p5_sep8_run10_impulse_noproj/multiple_body_complete.dat
================================================
