
================ Simulation setup ================
  Run label:         /work/e643/e643/shared/multi_ellip/studies/two_body_paper_sweeps/runs/spheroid_1_0p7_0p7/spheroid_1_0p7_0p7_rho1_E30_sep11_run02_impulse_noproj/
  Started:           2026-06-22 19:39:26
  Input file:        /work/e643/e643/shared/multi_ellip/studies/two_body_paper_sweeps/runs/spheroid_1_0p7_0p7/spheroid_1_0p7_0p7_rho1_E30_sep11_run02_impulse_noproj/input.txt
  Output file:       /work/e643/e643/shared/multi_ellip/studies/two_body_paper_sweeps/runs/spheroid_1_0p7_0p7/spheroid_1_0p7_0p7_rho1_E30_sep11_run02_impulse_noproj/multiple_body_complete.dat
  Bodies:            2
  Fluid density:     1
  Mesh:              ndiv 2 -> 256 triangles / 516 nodes
  Simulated time:    0 -> 100  (dt = 0.05, ~2000 steps)
  Output cadence:    every 1 step(s)
  Output rows:       ~2001
  Progress cadence:  every 100 step(s)
  CPU cores:         256 available, 8 Rayon worker thread(s)
  Strong coupling:   disabled
  Impulse scheme:    enabled
  Hamiltonian step:  disabled
  Hamiltonian midpt: disabled
  Variational step:  disabled
  Energy projection: disabled
  Projection particular metric: Euclidean
  Fluid KE gradient: disabled  (eps = 0.001, scale = 1, linear = 1, angular = 1)
  Fluid KE discrete gradient: disabled
  Impulse pair metric correction: disabled  (mode = pair discrete-gradient, cutoff = all pairs, inner/outer = 0/0, eps = 0.001, linear scale = 1, angular scale = 0)
  Impulse metric correction: disabled  (internal load constraint = disabled)
  Impulse variational defect probe: disabled
  Impulse quadratic pressure: disabled  (scale = 1)
  Added-mass stab:   disabled
  Exact BEM geometry: disabled
  Exact singular BEM: disabled
  Legacy singular SLP diagnostic: disabled
  Phi-dot blend:     0 (off)

  Solver guidance:
    - Strong coupling: use for stiff close-coupled runs; slower but more implicit.
    - Impulse scheme: use when impulse/momentum conservation or KE drift is the focus. Recommended.
    - Added-mass stab: use for higher mesh counts (ndiv > 3) to preserve stability - deprecated.
================================================
Solver starting - good luck!

Initial state:
  Body  1
    density:          1.000000
    shape axes ratio: (1.000000, 0.700000, 0.700000)
    initial KE ratio: 30.000000
    position:         (-5.500000, 0.000000, 0.000000)
    velocity:         (0.541832, 0.016433, 0.498367)
    angular velocity: (4.027239, -4.807019, 0.390290)
    orientation:      (w=0.577350, i=0.577350, j=0.577350, k=0.000000)
  Body  2
    density:          1.000000
    shape axes ratio: (1.000000, 0.700000, 0.700000)
    initial KE ratio: 30.000000
    position:         (5.500000, 0.000000, 0.000000)
    velocity:         (0.583683, 0.017702, 0.536861)
    angular velocity: (0.561400, -3.398937, -5.254567)
    orientation:      (w=0.577350, i=-0.577350, j=0.000000, k=0.577350)

Preparing first step: implicit scheme, no bootstrap passes required.
First step may take longer than later steps.

First step completed in 0.277 s.

Step   100/2000    5.0% | t 5.000 | ETA 4m 1s | step 0.13s | KE 86.9948 | drift -0.09% | fluid 7.3674 | solid 79.6274
  Impulse FP iterations last/mean/max 9/8.97/9
Step   200/2000   10.0% | t 10.000 | ETA 3m 49s | step 0.13s | KE 86.9148 | drift -0.19% | fluid 7.3518 | solid 79.5629
  Impulse FP iterations last/mean/max 9/8.98/9
Step   300/2000   15.0% | t 15.000 | ETA 3m 37s | step 0.13s | KE 86.8457 | drift -0.27% | fluid 7.3832 | solid 79.4624
  Impulse FP iterations last/mean/max 9/8.99/9
Step   400/2000   20.0% | t 20.000 | ETA 3m 25s | step 0.12s | KE 86.7880 | drift -0.33% | fluid 7.3783 | solid 79.4097
  Impulse FP iterations last/mean/max 9/8.99/9
Step   500/2000   25.0% | t 25.000 | ETA 3m 11s | step 0.12s | KE 86.7236 | drift -0.41% | fluid 7.5504 | solid 79.1732
  Impulse FP iterations last/mean/max 9/8.99/9
Step   600/2000   30.0% | t 30.000 | ETA 2m 58s | step 0.12s | KE 86.6918 | drift -0.44% | fluid 7.4116 | solid 79.2802
  Impulse FP iterations last/mean/max 9/8.99/9
Step   700/2000   35.0% | t 35.000 | ETA 2m 45s | step 0.12s | KE 86.6588 | drift -0.48% | fluid 7.4153 | solid 79.2435
  Impulse FP iterations last/mean/max 9/8.99/9
Step   800/2000   40.0% | t 40.000 | ETA 2m 32s | step 0.11s | KE 86.6344 | drift -0.51% | fluid 7.4044 | solid 79.2300
  Impulse FP iterations last/mean/max 9/8.99/9
Step   900/2000   45.0% | t 45.000 | ETA 2m 19s | step 0.12s | KE 86.6122 | drift -0.53% | fluid 7.3798 | solid 79.2324
  Impulse FP iterations last/mean/max 9/8.99/9
Step  1000/2000   50.0% | t 50.000 | ETA 2m 6s | step 0.13s | KE 86.5768 | drift -0.57% | fluid 7.5222 | solid 79.0546
  Impulse FP iterations last/mean/max 9/8.98/9
Step  1100/2000   55.0% | t 55.000 | ETA 1m 54s | step 0.12s | KE 86.5671 | drift -0.59% | fluid 7.3907 | solid 79.1763
  Impulse FP iterations last/mean/max 9/8.98/9
Step  1200/2000   60.0% | t 60.000 | ETA 1m 41s | step 0.13s | KE 86.5492 | drift -0.61% | fluid 7.4626 | solid 79.0865
  Impulse FP iterations last/mean/max 9/8.98/9
Step  1300/2000   65.0% | t 65.000 | ETA 1m 28s | step 0.12s | KE 86.5519 | drift -0.60% | fluid 7.3302 | solid 79.2217
  Impulse FP iterations last/mean/max 9/8.98/9
Step  1400/2000   70.0% | t 70.000 | ETA 1m 15s | step 0.13s | KE 86.5420 | drift -0.61% | fluid 7.3435 | solid 79.1985
  Impulse FP iterations last/mean/max 9/8.98/9
Step  1500/2000   75.0% | t 75.000 | ETA 1m 3s | step 0.12s | KE 86.5301 | drift -0.63% | fluid 7.3779 | solid 79.1522
  Impulse FP iterations last/mean/max 9/8.98/9
Step  1600/2000   80.0% | t 80.000 | ETA 50s | step 0.13s | KE 86.5244 | drift -0.63% | fluid 7.3938 | solid 79.1306
  Impulse FP iterations last/mean/max 9/8.98/9
Step  1700/2000   85.0% | t 85.000 | ETA 37s | step 0.11s | KE 86.5141 | drift -0.65% | fluid 7.5464 | solid 78.9677
  Impulse FP iterations last/mean/max 8/8.96/9
Step  1800/2000   90.0% | t 90.000 | ETA 25s | step 0.13s | KE 86.5274 | drift -0.63% | fluid 7.4021 | solid 79.1253
  Impulse FP iterations last/mean/max 9/8.95/9
Step  1900/2000   95.0% | t 95.000 | ETA 12s | step 0.12s | KE 86.5226 | drift -0.64% | fluid 7.4381 | solid 79.0845
  Impulse FP iterations last/mean/max 9/8.95/9
Solver finished successfully - good job!
Results saved successfully.

================== Run summary ==================
  Bodies:            2
  Triangles / nodes: 256 / 516
  Timesteps:         2000  (dt = 0.05)
  Simulated time:    0 -> 100
  First-step setup:  0.277 s
  Mean time/step:    0.1259 s  (excl. first step)
  Total wall time:   4m 11s
  Impulse FP iters last/mean/max: 9 / 8.950 / 9
  Approx impulse solves/step:     8.950
  Impulse start cache hits/direct: 1999 / 1
  Impulse global drift P/H:       1.327582e-7 / 1.159922e-2
  Impulse per-body max drift P/H: 1.718047e-7 / 1.155385e-2
  CPU cores:         256 available, 8 Rayon worker thread(s)
  Started:           2026-06-22 19:39:26
  Finished:          2026-06-22 19:43:38
  Output file:       /work/e643/e643/shared/multi_ellip/studies/two_body_paper_sweeps/runs/spheroid_1_0p7_0p7/spheroid_1_0p7_0p7_rho1_E30_sep11_run02_impulse_noproj/multiple_body_complete.dat
================================================
