
================ Simulation setup ================
  Run label:         /work/e643/e643/shared/multi_ellip/studies/two_body_paper_sweeps/runs/spheroid_1_0p7_0p7/spheroid_1_0p7_0p7_rho1_E4_sep11_run02_impulse_noproj/
  Started:           2026-06-22 19:34:21
  Input file:        /work/e643/e643/shared/multi_ellip/studies/two_body_paper_sweeps/runs/spheroid_1_0p7_0p7/spheroid_1_0p7_0p7_rho1_E4_sep11_run02_impulse_noproj/input.txt
  Output file:       /work/e643/e643/shared/multi_ellip/studies/two_body_paper_sweeps/runs/spheroid_1_0p7_0p7/spheroid_1_0p7_0p7_rho1_E4_sep11_run02_impulse_noproj/multiple_body_complete.dat
  Bodies:            2
  Fluid density:     1
  Mesh:              ndiv 2 -> 256 triangles / 516 nodes
  Simulated time:    0 -> 100  (dt = 0.05, ~2000 steps)
  Output cadence:    every 1 step(s)
  Output rows:       ~2001
  Progress cadence:  every 100 step(s)
  CPU cores:         256 available, 8 Rayon worker thread(s)
  Strong coupling:   disabled
  Impulse scheme:    enabled
  Hamiltonian step:  disabled
  Hamiltonian midpt: disabled
  Variational step:  disabled
  Energy projection: disabled
  Projection particular metric: Euclidean
  Fluid KE gradient: disabled  (eps = 0.001, scale = 1, linear = 1, angular = 1)
  Fluid KE discrete gradient: disabled
  Impulse pair metric correction: disabled  (mode = pair discrete-gradient, cutoff = all pairs, inner/outer = 0/0, eps = 0.001, linear scale = 1, angular scale = 0)
  Impulse metric correction: disabled  (internal load constraint = disabled)
  Impulse variational defect probe: disabled
  Impulse quadratic pressure: disabled  (scale = 1)
  Added-mass stab:   disabled
  Exact BEM geometry: disabled
  Exact singular BEM: disabled
  Legacy singular SLP diagnostic: disabled
  Phi-dot blend:     0 (off)

  Solver guidance:
    - Strong coupling: use for stiff close-coupled runs; slower but more implicit.
    - Impulse scheme: use when impulse/momentum conservation or KE drift is the focus. Recommended.
    - Added-mass stab: use for higher mesh counts (ndiv > 3) to preserve stability - deprecated.
================================================
Solver starting - good luck!

Initial state:
  Body  1
    density:          1.000000
    shape axes ratio: (1.000000, 0.700000, 0.700000)
    initial KE ratio: 4.000000
    position:         (-5.500000, 0.000000, 0.000000)
    velocity:         (-1.847988, -0.701675, -0.376127)
    angular velocity: (4.080703, -4.659628, 1.055530)
    orientation:      (w=0.577350, i=0.577350, j=0.577350, k=0.000000)
  Body  2
    density:          1.000000
    shape axes ratio: (1.000000, 0.700000, 0.700000)
    initial KE ratio: 4.000000
    position:         (5.500000, 0.000000, 0.000000)
    velocity:         (-1.782668, -0.676873, -0.362833)
    angular velocity: (4.848235, -3.943624, 0.648742)
    orientation:      (w=0.577350, i=-0.577350, j=0.000000, k=0.577350)

Preparing first step: implicit scheme, no bootstrap passes required.
First step may take longer than later steps.

First step completed in 0.368 s.

Step   100/2000    5.0% | t 5.000 | ETA 4m 23s | step 0.14s | KE 108.3048 | drift -0.38% | fluid 15.1899 | solid 93.1148
  Impulse FP iterations last/mean/max 10/9.84/10
Step   200/2000   10.0% | t 10.000 | ETA 4m 12s | step 0.14s | KE 107.7733 | drift -0.87% | fluid 15.6325 | solid 92.1408
  Impulse FP iterations last/mean/max 10/9.90/10
Step   300/2000   15.0% | t 15.000 | ETA 3m 56s | step 0.13s | KE 107.4452 | drift -1.17% | fluid 14.7651 | solid 92.6801
  Impulse FP iterations last/mean/max 9/9.79/10
Step   400/2000   20.0% | t 20.000 | ETA 3m 42s | step 0.14s | KE 107.1343 | drift -1.46% | fluid 15.0217 | solid 92.1126
  Impulse FP iterations last/mean/max 10/9.79/10
Step   500/2000   25.0% | t 25.000 | ETA 3m 28s | step 0.13s | KE 107.0921 | drift -1.50% | fluid 14.5530 | solid 92.5391
  Impulse FP iterations last/mean/max 10/9.78/10
Step   600/2000   30.0% | t 30.000 | ETA 3m 14s | step 0.14s | KE 107.1562 | drift -1.44% | fluid 15.6148 | solid 91.5414
  Impulse FP iterations last/mean/max 10/9.76/10
Step   700/2000   35.0% | t 35.000 | ETA 3m 0s | step 0.13s | KE 107.3216 | drift -1.29% | fluid 15.9474 | solid 91.3742
  Impulse FP iterations last/mean/max 9/9.75/10
Step   800/2000   40.0% | t 40.000 | ETA 2m 46s | step 0.13s | KE 107.6221 | drift -1.01% | fluid 14.4892 | solid 93.1328
  Impulse FP iterations last/mean/max 9/9.73/10
Step   900/2000   45.0% | t 45.000 | ETA 2m 32s | step 0.14s | KE 107.7421 | drift -0.90% | fluid 15.4710 | solid 92.2711
  Impulse FP iterations last/mean/max 10/9.73/10
Step  1000/2000   50.0% | t 50.000 | ETA 2m 18s | step 0.12s | KE 107.8680 | drift -0.78% | fluid 15.1669 | solid 92.7010
  Impulse FP iterations last/mean/max 9/9.71/10
Step  1100/2000   55.0% | t 55.000 | ETA 2m 4s | step 0.14s | KE 107.8245 | drift -0.82% | fluid 15.3994 | solid 92.4251
  Impulse FP iterations last/mean/max 10/9.68/10
Step  1200/2000   60.0% | t 60.000 | ETA 1m 50s | step 0.14s | KE 107.7664 | drift -0.88% | fluid 15.4875 | solid 92.2789
  Impulse FP iterations last/mean/max 10/9.67/10
Step  1300/2000   65.0% | t 65.000 | ETA 1m 36s | step 0.14s | KE 107.7382 | drift -0.90% | fluid 15.2208 | solid 92.5174
  Impulse FP iterations last/mean/max 10/9.65/10
Step  1400/2000   70.0% | t 70.000 | ETA 1m 22s | step 0.14s | KE 107.6353 | drift -1.00% | fluid 15.2242 | solid 92.4111
  Impulse FP iterations last/mean/max 10/9.64/10
Step  1500/2000   75.0% | t 75.000 | ETA 1m 8s | step 0.15s | KE 107.6301 | drift -1.00% | fluid 14.0591 | solid 93.5710
  Impulse FP iterations last/mean/max 10/9.63/10
Step  1600/2000   80.0% | t 80.000 | ETA 54s | step 0.13s | KE 107.4972 | drift -1.12% | fluid 15.6696 | solid 91.8275
  Impulse FP iterations last/mean/max 9/9.61/10
Step  1700/2000   85.0% | t 85.000 | ETA 41s | step 0.13s | KE 107.5314 | drift -1.09% | fluid 15.5111 | solid 92.0203
  Impulse FP iterations last/mean/max 9/9.60/10
Step  1800/2000   90.0% | t 90.000 | ETA 27s | step 0.12s | KE 107.5353 | drift -1.09% | fluid 15.3945 | solid 92.1409
  Impulse FP iterations last/mean/max 10/9.60/10
Step  1900/2000   95.0% | t 95.000 | ETA 13s | step 0.11s | KE 107.6033 | drift -1.03% | fluid 15.0028 | solid 92.6006
  Impulse FP iterations last/mean/max 9/9.59/10
Solver finished successfully - good job!
Results saved successfully.

================== Run summary ==================
  Bodies:            2
  Triangles / nodes: 256 / 516
  Timesteps:         2000  (dt = 0.05)
  Simulated time:    0 -> 100
  First-step setup:  0.368 s
  Mean time/step:    0.1352 s  (excl. first step)
  Total wall time:   4m 30s
  Impulse FP iters last/mean/max: 9 / 9.581 / 10
  Approx impulse solves/step:     9.582
  Impulse start cache hits/direct: 1999 / 1
  Impulse global drift P/H:       3.057216e-8 / 1.726915e-2
  Impulse per-body max drift P/H: 3.782762e-8 / 9.094638e-3
  CPU cores:         256 available, 8 Rayon worker thread(s)
  Started:           2026-06-22 19:34:21
  Finished:          2026-06-22 19:38:52
  Output file:       /work/e643/e643/shared/multi_ellip/studies/two_body_paper_sweeps/runs/spheroid_1_0p7_0p7/spheroid_1_0p7_0p7_rho1_E4_sep11_run02_impulse_noproj/multiple_body_complete.dat
================================================
