
================ Simulation setup ================
  Run label:         /work/e643/e643/shared/multi_ellip/studies/two_body_paper_sweeps/runs/ellipsoid_1_0p8_0p6/ellipsoid_1_0p8_0p6_rho10_E30_sep8_run05_impulse_noproj/
  Started:           2026-06-24 01:24:53
  Input file:        /work/e643/e643/shared/multi_ellip/studies/two_body_paper_sweeps/runs/ellipsoid_1_0p8_0p6/ellipsoid_1_0p8_0p6_rho10_E30_sep8_run05_impulse_noproj/input.txt
  Output file:       /work/e643/e643/shared/multi_ellip/studies/two_body_paper_sweeps/runs/ellipsoid_1_0p8_0p6/ellipsoid_1_0p8_0p6_rho10_E30_sep8_run05_impulse_noproj/multiple_body_complete.dat
  Bodies:            2
  Fluid density:     1
  Mesh:              ndiv 2 -> 256 triangles / 516 nodes
  Simulated time:    0 -> 100  (dt = 0.05, ~2000 steps)
  Output cadence:    every 1 step(s)
  Output rows:       ~2001
  Progress cadence:  every 100 step(s)
  CPU cores:         256 available, 8 Rayon worker thread(s)
  Strong coupling:   disabled
  Impulse scheme:    enabled
  Hamiltonian step:  disabled
  Hamiltonian midpt: disabled
  Variational step:  disabled
  Energy projection: disabled
  Projection particular metric: Euclidean
  Fluid KE gradient: disabled  (eps = 0.001, scale = 1, linear = 1, angular = 1)
  Fluid KE discrete gradient: disabled
  Impulse pair metric correction: disabled  (mode = pair discrete-gradient, cutoff = all pairs, inner/outer = 0/0, eps = 0.001, linear scale = 1, angular scale = 0)
  Impulse metric correction: disabled  (internal load constraint = disabled)
  Impulse variational defect probe: disabled
  Impulse quadratic pressure: disabled  (scale = 1)
  Added-mass stab:   disabled
  Exact BEM geometry: disabled
  Exact singular BEM: disabled
  Legacy singular SLP diagnostic: disabled
  Phi-dot blend:     0 (off)

  Solver guidance:
    - Strong coupling: use for stiff close-coupled runs; slower but more implicit.
    - Impulse scheme: use when impulse/momentum conservation or KE drift is the focus. Recommended.
    - Added-mass stab: use for higher mesh counts (ndiv > 3) to preserve stability - deprecated.
================================================
Solver starting - good luck!

Initial state:
  Body  1
    density:          10.000000
    shape axes ratio: (1.000000, 0.800000, 0.600000)
    initial KE ratio: 30.000000
    position:         (-4.000000, 0.000000, 0.000000)
    velocity:         (0.217681, -0.697983, -0.181550)
    angular velocity: (2.722986, -5.281785, 2.041203)
    orientation:      (w=0.471958, i=-0.741169, j=0.074944, k=0.471495)
  Body  2
    density:          10.000000
    shape axes ratio: (1.000000, 0.800000, 0.600000)
    initial KE ratio: 30.000000
    position:         (4.000000, 0.000000, 0.000000)
    velocity:         (0.224618, -0.720225, -0.187335)
    angular velocity: (-3.155924, -3.164073, 4.416696)
    orientation:      (w=-0.342043, i=0.158224, j=0.427908, k=0.821503)

Preparing first step: implicit scheme, no bootstrap passes required.
First step may take longer than later steps.

First step completed in 0.223 s.

Step   100/2000    5.0% | t 5.000 | ETA 2m 55s | step 0.12s | KE 734.3600 | drift +0.02% | fluid 5.7331 | solid 728.6269
  Impulse FP iterations last/mean/max 8/7.44/8
Step   200/2000   10.0% | t 10.000 | ETA 2m 59s | step 0.11s | KE 734.5367 | drift +0.05% | fluid 5.9222 | solid 728.6145
  Impulse FP iterations last/mean/max 8/7.47/8
Step   300/2000   15.0% | t 15.000 | ETA 2m 53s | step 0.11s | KE 734.7292 | drift +0.07% | fluid 5.3477 | solid 729.3815
  Impulse FP iterations last/mean/max 8/7.48/8
Step   400/2000   20.0% | t 20.000 | ETA 2m 44s | step 0.11s | KE 734.9203 | drift +0.10% | fluid 4.7925 | solid 730.1278
  Impulse FP iterations last/mean/max 7/7.46/8
Step   500/2000   25.0% | t 25.000 | ETA 2m 34s | step 0.10s | KE 735.1098 | drift +0.12% | fluid 5.1748 | solid 729.9350
  Impulse FP iterations last/mean/max 7/7.45/8
Step   600/2000   30.0% | t 30.000 | ETA 2m 24s | step 0.10s | KE 735.3027 | drift +0.15% | fluid 5.7853 | solid 729.5174
  Impulse FP iterations last/mean/max 7/7.45/8
Step   700/2000   35.0% | t 35.000 | ETA 2m 14s | step 0.10s | KE 735.4900 | drift +0.18% | fluid 6.0503 | solid 729.4397
  Impulse FP iterations last/mean/max 7/7.45/8
Step   800/2000   40.0% | t 40.000 | ETA 2m 5s | step 0.12s | KE 735.6903 | drift +0.20% | fluid 5.3508 | solid 730.3395
  Impulse FP iterations last/mean/max 8/7.46/8
Step   900/2000   45.0% | t 45.000 | ETA 1m 55s | step 0.10s | KE 735.8942 | drift +0.23% | fluid 5.1307 | solid 730.7635
  Impulse FP iterations last/mean/max 7/7.46/8
Step  1000/2000   50.0% | t 50.000 | ETA 1m 44s | step 0.11s | KE 736.1020 | drift +0.26% | fluid 5.3674 | solid 730.7347
  Impulse FP iterations last/mean/max 8/7.46/8
Step  1100/2000   55.0% | t 55.000 | ETA 1m 34s | step 0.10s | KE 736.3004 | drift +0.29% | fluid 5.7249 | solid 730.5755
  Impulse FP iterations last/mean/max 7/7.46/8
Step  1200/2000   60.0% | t 60.000 | ETA 1m 24s | step 0.10s | KE 736.5017 | drift +0.31% | fluid 5.3439 | solid 731.1578
  Impulse FP iterations last/mean/max 7/7.46/8
Step  1300/2000   65.0% | t 65.000 | ETA 1m 13s | step 0.10s | KE 736.6872 | drift +0.34% | fluid 5.2546 | solid 731.4326
  Impulse FP iterations last/mean/max 7/7.46/8
Step  1400/2000   70.0% | t 70.000 | ETA 1m 3s | step 0.12s | KE 736.8738 | drift +0.36% | fluid 5.6216 | solid 731.2522
  Impulse FP iterations last/mean/max 8/7.46/8
Step  1500/2000   75.0% | t 75.000 | ETA 52s | step 0.12s | KE 737.0628 | drift +0.39% | fluid 5.7608 | solid 731.3019
  Impulse FP iterations last/mean/max 8/7.46/8
Step  1600/2000   80.0% | t 80.000 | ETA 42s | step 0.11s | KE 737.2535 | drift +0.42% | fluid 5.4472 | solid 731.8063
  Impulse FP iterations last/mean/max 8/7.47/8
Step  1700/2000   85.0% | t 85.000 | ETA 31s | step 0.10s | KE 737.4387 | drift +0.44% | fluid 4.8827 | solid 732.5560
  Impulse FP iterations last/mean/max 7/7.47/8
Step  1800/2000   90.0% | t 90.000 | ETA 21s | step 0.10s | KE 737.6101 | drift +0.47% | fluid 5.4033 | solid 732.2068
  Impulse FP iterations last/mean/max 7/7.47/8
Step  1900/2000   95.0% | t 95.000 | ETA 10s | step 0.10s | KE 737.7729 | drift +0.49% | fluid 5.8320 | solid 731.9408
  Impulse FP iterations last/mean/max 7/7.47/8
Solver finished successfully - good job!
Results saved successfully.

================== Run summary ==================
  Bodies:            2
  Triangles / nodes: 256 / 516
  Timesteps:         2000  (dt = 0.05)
  Simulated time:    0 -> 100
  First-step setup:  0.223 s
  Mean time/step:    0.1054 s  (excl. first step)
  Total wall time:   3m 30s
  Impulse FP iters last/mean/max: 8 / 7.463 / 8
  Approx impulse solves/step:     7.463
  Impulse start cache hits/direct: 1999 / 1
  Impulse global drift P/H:       1.106729e-8 / 3.816733e-3
  Impulse per-body max drift P/H: 2.201941e-8 / 3.041302e-3
  CPU cores:         256 available, 8 Rayon worker thread(s)
  Started:           2026-06-24 01:24:53
  Finished:          2026-06-24 01:28:25
  Output file:       /work/e643/e643/shared/multi_ellip/studies/two_body_paper_sweeps/runs/ellipsoid_1_0p8_0p6/ellipsoid_1_0p8_0p6_rho10_E30_sep8_run05_impulse_noproj/multiple_body_complete.dat
================================================
