
================ Simulation setup ================
  Run label:         /work/e643/e643/shared/multi_ellip/studies/departing_sphericity_sweep/runs/triaxial/homogeneous/triaxial_homogeneous_eps0p001_rho1_E0p5_sep8_run08_impulse_noproj/
  Started:           2026-06-24 02:26:25
  Input file:        /work/e643/e643/shared/multi_ellip/studies/departing_sphericity_sweep/runs/triaxial/homogeneous/triaxial_homogeneous_eps0p001_rho1_E0p5_sep8_run08_impulse_noproj/input.txt
  Output file:       /work/e643/e643/shared/multi_ellip/studies/departing_sphericity_sweep/runs/triaxial/homogeneous/triaxial_homogeneous_eps0p001_rho1_E0p5_sep8_run08_impulse_noproj/multiple_body_complete.dat
  Bodies:            2
  Fluid density:     1
  Mesh:              ndiv 2 -> 256 triangles / 516 nodes
  Simulated time:    0 -> 100  (dt = 0.05, ~2000 steps)
  Output cadence:    every 1 step(s)
  Output rows:       ~2001
  Progress cadence:  every 100 step(s)
  CPU cores:         256 available, 8 Rayon worker thread(s)
  Strong coupling:   disabled
  Impulse scheme:    enabled
  Hamiltonian step:  disabled
  Hamiltonian midpt: disabled
  Variational step:  disabled
  Energy projection: disabled
  Projection particular metric: Euclidean
  Fluid KE gradient: disabled  (eps = 0.001, scale = 1, linear = 1, angular = 1)
  Fluid KE discrete gradient: disabled
  Impulse pair metric correction: disabled  (mode = pair discrete-gradient, cutoff = all pairs, inner/outer = 0/0, eps = 0.001, linear scale = 1, angular scale = 0)
  Impulse metric correction: disabled  (internal load constraint = disabled)
  Impulse variational defect probe: disabled
  Impulse quadratic pressure: disabled  (scale = 1)
  Added-mass stab:   disabled
  Exact BEM geometry: disabled
  Exact singular BEM: disabled
  Legacy singular SLP diagnostic: disabled
  Phi-dot blend:     0 (off)

  Solver guidance:
    - Strong coupling: use for stiff close-coupled runs; slower but more implicit.
    - Impulse scheme: use when impulse/momentum conservation or KE drift is the focus. Recommended.
    - Added-mass stab: use for higher mesh counts (ndiv > 3) to preserve stability - deprecated.
================================================
Solver starting - good luck!

Initial state:
  Body  1
    density:          1.000000
    shape axes ratio: (1.000000, 0.999001, 0.998003)
    initial KE ratio: 0.500000
    position:         (-4.000000, 0.000000, 0.000000)
    velocity:         (-5.055986, 0.464647, 2.409907)
    angular velocity: (-0.861396, 5.770390, 2.332169)
    orientation:      (w=0.920240, i=-0.270219, j=0.128953, k=0.252015)
  Body  2
    density:          1.000000
    shape axes ratio: (1.000000, 0.999001, 0.998003)
    initial KE ratio: 0.500000
    position:         (4.000000, 0.000000, 0.000000)
    velocity:         (-5.055401, 0.464594, 2.409628)
    angular velocity: (3.002784, -5.087912, 2.138891)
    orientation:      (w=0.426483, i=0.609339, j=-0.028016, k=0.667857)

Preparing first step: implicit scheme, no bootstrap passes required.
First step may take longer than later steps.

First step completed in 0.242 s.

Step   100/2000    5.0% | t 5.000 | ETA 3m 7s | step 0.10s | KE 271.7683 | drift +0.45% | fluid 72.0602 | solid 199.7081
  Impulse FP iterations last/mean/max 7/7.29/8
Step   200/2000   10.0% | t 10.000 | ETA 3m 3s | step 0.10s | KE 275.0459 | drift +1.66% | fluid 72.0460 | solid 202.9999
  Impulse FP iterations last/mean/max 7/7.41/8
Step   300/2000   15.0% | t 15.000 | ETA 2m 55s | step 0.09s | KE 280.4562 | drift +3.66% | fluid 72.0618 | solid 208.3944
  Impulse FP iterations last/mean/max 7/7.44/8
Step   400/2000   20.0% | t 20.000 | ETA 2m 46s | step 0.11s | KE 288.0992 | drift +6.49% | fluid 72.0448 | solid 216.0544
  Impulse FP iterations last/mean/max 8/7.51/8
Step   500/2000   25.0% | t 25.000 | ETA 2m 37s | step 0.12s | KE 298.0666 | drift +10.17% | fluid 72.0696 | solid 225.9970
  Impulse FP iterations last/mean/max 8/7.56/8
Step   600/2000   30.0% | t 30.000 | ETA 2m 28s | step 0.11s | KE 310.4544 | drift +14.75% | fluid 72.0794 | solid 238.3751
  Impulse FP iterations last/mean/max 8/7.62/8
Step   700/2000   35.0% | t 35.000 | ETA 2m 18s | step 0.11s | KE 325.3427 | drift +20.25% | fluid 72.0436 | solid 253.2991
  Impulse FP iterations last/mean/max 8/7.66/8
Step   800/2000   40.0% | t 40.000 | ETA 2m 8s | step 0.11s | KE 342.7509 | drift +26.69% | fluid 72.0578 | solid 270.6931
  Impulse FP iterations last/mean/max 8/7.69/8
Step   900/2000   45.0% | t 45.000 | ETA 1m 58s | step 0.12s | KE 362.7209 | drift +34.07% | fluid 72.0622 | solid 290.6587
  Impulse FP iterations last/mean/max 8/7.72/8
Step  1000/2000   50.0% | t 50.000 | ETA 1m 48s | step 0.11s | KE 385.2676 | drift +42.40% | fluid 72.0461 | solid 313.2215
  Impulse FP iterations last/mean/max 8/7.74/8
Step  1100/2000   55.0% | t 55.000 | ETA 1m 37s | step 0.11s | KE 410.4159 | drift +51.70% | fluid 72.0242 | solid 338.3917
  Impulse FP iterations last/mean/max 8/7.76/8
Step  1200/2000   60.0% | t 60.000 | ETA 1m 26s | step 0.11s | KE 438.1673 | drift +61.96% | fluid 72.0401 | solid 366.1272
  Impulse FP iterations last/mean/max 8/7.77/8
Step  1300/2000   65.0% | t 65.000 | ETA 1m 16s | step 0.11s | KE 468.5803 | drift +73.20% | fluid 72.0521 | solid 396.5283
  Impulse FP iterations last/mean/max 8/7.79/8
Step  1400/2000   70.0% | t 70.000 | ETA 1m 5s | step 0.11s | KE 501.7078 | drift +85.44% | fluid 72.0175 | solid 429.6903
  Impulse FP iterations last/mean/max 8/7.79/8
Step  1500/2000   75.0% | t 75.000 | ETA 54s | step 0.11s | KE 537.5444 | drift +98.69% | fluid 72.0432 | solid 465.5012
  Impulse FP iterations last/mean/max 8/7.80/8
Step  1600/2000   80.0% | t 80.000 | ETA 43s | step 0.12s | KE 576.1883 | drift +112.97% | fluid 72.0386 | solid 504.1497
  Impulse FP iterations last/mean/max 8/7.80/8
Step  1700/2000   85.0% | t 85.000 | ETA 32s | step 0.11s | KE 617.6714 | drift +128.31% | fluid 72.0343 | solid 545.6371
  Impulse FP iterations last/mean/max 8/7.81/8
Step  1800/2000   90.0% | t 90.000 | ETA 21s | step 0.10s | KE 662.0473 | drift +144.71% | fluid 72.0245 | solid 590.0228
  Impulse FP iterations last/mean/max 8/7.81/8
Step  1900/2000   95.0% | t 95.000 | ETA 10s | step 0.11s | KE 709.3646 | drift +162.20% | fluid 72.0254 | solid 637.3392
  Impulse FP iterations last/mean/max 8/7.82/8
Solver finished successfully - good job!
Results saved successfully.

================== Run summary ==================
  Bodies:            2
  Triangles / nodes: 256 / 516
  Timesteps:         2000  (dt = 0.05)
  Simulated time:    0 -> 100
  First-step setup:  0.242 s
  Mean time/step:    0.1082 s  (excl. first step)
  Total wall time:   3m 36s
  Impulse FP iters last/mean/max: 8 / 7.819 / 8
  Approx impulse solves/step:     7.819
  Impulse start cache hits/direct: 1999 / 1
  Impulse global drift P/H:       5.104775e-9 / 6.380687e-2
  Impulse per-body max drift P/H: 7.663056e-9 / 5.839030e-3
  CPU cores:         256 available, 8 Rayon worker thread(s)
  Started:           2026-06-24 02:26:25
  Finished:          2026-06-24 02:30:02
  Output file:       /work/e643/e643/shared/multi_ellip/studies/departing_sphericity_sweep/runs/triaxial/homogeneous/triaxial_homogeneous_eps0p001_rho1_E0p5_sep8_run08_impulse_noproj/multiple_body_complete.dat
================================================
