
================ Simulation setup ================
  Run label:         /work/e643/e643/shared/multi_ellip/studies/two_body_paper_sweeps/runs/spheroid_1_0p7_0p7/spheroid_1_0p7_0p7_rho10_E0p2_sep3_run05_impulse_noproj/
  Started:           2026-06-24 01:15:06
  Input file:        /work/e643/e643/shared/multi_ellip/studies/two_body_paper_sweeps/runs/spheroid_1_0p7_0p7/spheroid_1_0p7_0p7_rho10_E0p2_sep3_run05_impulse_noproj/input.txt
  Output file:       /work/e643/e643/shared/multi_ellip/studies/two_body_paper_sweeps/runs/spheroid_1_0p7_0p7/spheroid_1_0p7_0p7_rho10_E0p2_sep3_run05_impulse_noproj/multiple_body_complete.dat
  Bodies:            2
  Fluid density:     1
  Mesh:              ndiv 2 -> 256 triangles / 516 nodes
  Simulated time:    0 -> 100  (dt = 0.05, ~2000 steps)
  Output cadence:    every 1 step(s)
  Output rows:       ~2001
  Progress cadence:  every 100 step(s)
  CPU cores:         256 available, 8 Rayon worker thread(s)
  Strong coupling:   disabled
  Impulse scheme:    enabled
  Hamiltonian step:  disabled
  Hamiltonian midpt: disabled
  Variational step:  disabled
  Energy projection: disabled
  Projection particular metric: Euclidean
  Fluid KE gradient: disabled  (eps = 0.001, scale = 1, linear = 1, angular = 1)
  Fluid KE discrete gradient: disabled
  Impulse pair metric correction: disabled  (mode = pair discrete-gradient, cutoff = all pairs, inner/outer = 0/0, eps = 0.001, linear scale = 1, angular scale = 0)
  Impulse metric correction: disabled  (internal load constraint = disabled)
  Impulse variational defect probe: disabled
  Impulse quadratic pressure: disabled  (scale = 1)
  Added-mass stab:   disabled
  Exact BEM geometry: disabled
  Exact singular BEM: disabled
  Legacy singular SLP diagnostic: disabled
  Phi-dot blend:     0 (off)

  Solver guidance:
    - Strong coupling: use for stiff close-coupled runs; slower but more implicit.
    - Impulse scheme: use when impulse/momentum conservation or KE drift is the focus. Recommended.
    - Added-mass stab: use for higher mesh counts (ndiv > 3) to preserve stability - deprecated.
================================================
Solver starting - good luck!

Initial state:
  Body  1
    density:          10.000000
    shape axes ratio: (1.000000, 0.700000, 0.700000)
    initial KE ratio: 0.200000
    position:         (-1.500000, 0.000000, 0.000000)
    velocity:         (5.505917, -3.757410, 4.499926)
    angular velocity: (-6.042414, 0.214022, -1.709341)
    orientation:      (w=0.700152, i=0.369655, j=0.610808, k=-0.007420)
  Body  2
    density:          10.000000
    shape axes ratio: (1.000000, 0.700000, 0.700000)
    initial KE ratio: 0.200000
    position:         (1.500000, 0.000000, 0.000000)
    velocity:         (6.170564, -4.210986, 5.043134)
    angular velocity: (-4.041114, 4.789487, -0.456760)
    orientation:      (w=0.308278, i=0.813090, j=0.257508, k=-0.421354)

Preparing first step: implicit scheme, no bootstrap passes required.
First step may take longer than later steps.

First step completed in 7.161 s.

Step   100/2000    5.0% | t 5.000 | ETA 2m 37s | step 0.08s | KE 4062.6704 | drift +0.68% | fluid 203.2924 | solid 3859.3780
  Impulse FP iterations last/mean/max 6/6.67/7
Step   200/2000   10.0% | t 10.000 | ETA 2m 34s | step 0.10s | KE 4058.4534 | drift +0.58% | fluid 200.9609 | solid 3857.4925
  Impulse FP iterations last/mean/max 7/6.59/8
Step   300/2000   15.0% | t 15.000 | ETA 2m 29s | step 0.08s | KE 4058.1247 | drift +0.57% | fluid 202.0176 | solid 3856.1071
  Impulse FP iterations last/mean/max 6/6.58/8
Step   400/2000   20.0% | t 20.000 | ETA 2m 22s | step 0.11s | KE 4058.4445 | drift +0.58% | fluid 186.3307 | solid 3872.1138
  Impulse FP iterations last/mean/max 8/6.58/8
Step   500/2000   25.0% | t 25.000 | ETA 2m 14s | step 0.08s | KE 4058.7979 | drift +0.59% | fluid 188.3073 | solid 3870.4906
  Impulse FP iterations last/mean/max 6/6.56/8
Step   600/2000   30.0% | t 30.000 | ETA 2m 5s | step 0.10s | KE 4058.8226 | drift +0.59% | fluid 175.5176 | solid 3883.3050
  Impulse FP iterations last/mean/max 7/6.55/8
Step   700/2000   35.0% | t 35.000 | ETA 1m 57s | step 0.09s | KE 4058.7637 | drift +0.59% | fluid 187.6667 | solid 3871.0970
  Impulse FP iterations last/mean/max 6/6.55/8
Step   800/2000   40.0% | t 40.000 | ETA 1m 48s | step 0.10s | KE 4058.4153 | drift +0.58% | fluid 186.7697 | solid 3871.6456
  Impulse FP iterations last/mean/max 7/6.54/8
Step   900/2000   45.0% | t 45.000 | ETA 1m 39s | step 0.10s | KE 4058.0944 | drift +0.57% | fluid 202.2616 | solid 3855.8328
  Impulse FP iterations last/mean/max 7/6.54/8
Step  1000/2000   50.0% | t 50.000 | ETA 1m 30s | step 0.10s | KE 4057.8408 | drift +0.56% | fluid 204.4129 | solid 3853.4279
  Impulse FP iterations last/mean/max 7/6.53/8
Step  1100/2000   55.0% | t 55.000 | ETA 1m 21s | step 0.11s | KE 4057.8244 | drift +0.56% | fluid 205.9678 | solid 3851.8567
  Impulse FP iterations last/mean/max 8/6.54/8
Step  1200/2000   60.0% | t 60.000 | ETA 1m 12s | step 0.08s | KE 4058.0351 | drift +0.57% | fluid 203.0547 | solid 3854.9804
  Impulse FP iterations last/mean/max 6/6.53/8
Step  1300/2000   65.0% | t 65.000 | ETA 1m 3s | step 0.10s | KE 4058.3395 | drift +0.58% | fluid 189.9914 | solid 3868.3481
  Impulse FP iterations last/mean/max 7/6.53/8
Step  1400/2000   70.0% | t 70.000 | ETA 54s | step 0.08s | KE 4058.6644 | drift +0.58% | fluid 190.3063 | solid 3868.3581
  Impulse FP iterations last/mean/max 6/6.53/8
Step  1500/2000   75.0% | t 75.000 | ETA 45s | step 0.10s | KE 4058.7396 | drift +0.59% | fluid 178.4291 | solid 3880.3105
  Impulse FP iterations last/mean/max 7/6.53/8
Step  1600/2000   80.0% | t 80.000 | ETA 36s | step 0.09s | KE 4058.7417 | drift +0.59% | fluid 189.9567 | solid 3868.7850
  Impulse FP iterations last/mean/max 6/6.53/8
Step  1700/2000   85.0% | t 85.000 | ETA 27s | step 0.09s | KE 4058.4656 | drift +0.58% | fluid 185.6464 | solid 3872.8191
  Impulse FP iterations last/mean/max 6/6.53/8
Step  1800/2000   90.0% | t 90.000 | ETA 18s | step 0.10s | KE 4058.2785 | drift +0.57% | fluid 200.2163 | solid 3858.0621
  Impulse FP iterations last/mean/max 6/6.53/8
Step  1900/2000   95.0% | t 95.000 | ETA 9s | step 0.10s | KE 4058.0730 | drift +0.57% | fluid 196.6956 | solid 3861.3774
  Impulse FP iterations last/mean/max 7/6.52/8
Solver finished successfully - good job!
Results saved successfully.

================== Run summary ==================
  Bodies:            2
  Triangles / nodes: 256 / 516
  Timesteps:         2000  (dt = 0.05)
  Simulated time:    0 -> 100
  First-step setup:  7.161 s
  Mean time/step:    0.0914 s  (excl. first step)
  Total wall time:   3m 9s
  Impulse FP iters last/mean/max: 6 / 6.522 / 8
  Approx impulse solves/step:     6.522
  Impulse start cache hits/direct: 1999 / 1
  Impulse global drift P/H:       1.017683e-9 / 1.393274e-2
  Impulse per-body max drift P/H: 1.231603e-9 / 5.444217e-3
  CPU cores:         256 available, 8 Rayon worker thread(s)
  Started:           2026-06-24 01:15:06
  Finished:          2026-06-24 01:18:16
  Output file:       /work/e643/e643/shared/multi_ellip/studies/two_body_paper_sweeps/runs/spheroid_1_0p7_0p7/spheroid_1_0p7_0p7_rho10_E0p2_sep3_run05_impulse_noproj/multiple_body_complete.dat
================================================
