
================ Simulation setup ================
  Run label:         /work/e643/e643/shared/multi_ellip/studies/two_body_paper_sweeps/runs/spheroid_1_0p7_0p7/spheroid_1_0p7_0p7_rho10_E0p2_sep8_run02_impulse_noproj/
  Started:           2026-06-22 19:23:17
  Input file:        /work/e643/e643/shared/multi_ellip/studies/two_body_paper_sweeps/runs/spheroid_1_0p7_0p7/spheroid_1_0p7_0p7_rho10_E0p2_sep8_run02_impulse_noproj/input.txt
  Output file:       /work/e643/e643/shared/multi_ellip/studies/two_body_paper_sweeps/runs/spheroid_1_0p7_0p7/spheroid_1_0p7_0p7_rho10_E0p2_sep8_run02_impulse_noproj/multiple_body_complete.dat
  Bodies:            2
  Fluid density:     1
  Mesh:              ndiv 2 -> 256 triangles / 516 nodes
  Simulated time:    0 -> 100  (dt = 0.05, ~2000 steps)
  Output cadence:    every 1 step(s)
  Output rows:       ~2001
  Progress cadence:  every 100 step(s)
  CPU cores:         256 available, 8 Rayon worker thread(s)
  Strong coupling:   disabled
  Impulse scheme:    enabled
  Hamiltonian step:  disabled
  Hamiltonian midpt: disabled
  Variational step:  disabled
  Energy projection: disabled
  Projection particular metric: Euclidean
  Fluid KE gradient: disabled  (eps = 0.001, scale = 1, linear = 1, angular = 1)
  Fluid KE discrete gradient: disabled
  Impulse pair metric correction: disabled  (mode = pair discrete-gradient, cutoff = all pairs, inner/outer = 0/0, eps = 0.001, linear scale = 1, angular scale = 0)
  Impulse metric correction: disabled  (internal load constraint = disabled)
  Impulse variational defect probe: disabled
  Impulse quadratic pressure: disabled  (scale = 1)
  Added-mass stab:   disabled
  Exact BEM geometry: disabled
  Exact singular BEM: disabled
  Legacy singular SLP diagnostic: disabled
  Phi-dot blend:     0 (off)

  Solver guidance:
    - Strong coupling: use for stiff close-coupled runs; slower but more implicit.
    - Impulse scheme: use when impulse/momentum conservation or KE drift is the focus. Recommended.
    - Added-mass stab: use for higher mesh counts (ndiv > 3) to preserve stability - deprecated.
================================================
Solver starting - good luck!

Initial state:
  Body  1
    density:          10.000000
    shape axes ratio: (1.000000, 0.700000, 0.700000)
    initial KE ratio: 0.200000
    position:         (-4.000000, 0.000000, 0.000000)
    velocity:         (4.020858, -7.546815, 1.655206)
    angular velocity: (-4.784059, 3.838850, 1.361775)
    orientation:      (w=0.577350, i=0.577350, j=0.577350, k=0.000000)
  Body  2
    density:          10.000000
    shape axes ratio: (1.000000, 0.700000, 0.700000)
    initial KE ratio: 0.200000
    position:         (4.000000, 0.000000, 0.000000)
    velocity:         (4.352477, -8.169236, 1.791719)
    angular velocity: (-2.647358, -3.887310, -4.166381)
    orientation:      (w=0.577350, i=-0.577350, j=0.000000, k=0.577350)

Preparing first step: implicit scheme, no bootstrap passes required.
First step may take longer than later steps.

First step completed in 7.318 s.

Step   100/2000    5.0% | t 5.000 | ETA 3m 3s | step 0.10s | KE 4435.1886 | drift -0.23% | fluid 184.0655 | solid 4251.1231
  Impulse FP iterations last/mean/max 7/6.87/8
Step   200/2000   10.0% | t 10.000 | ETA 2m 53s | step 0.10s | KE 4430.3039 | drift -0.34% | fluid 183.2944 | solid 4247.0095
  Impulse FP iterations last/mean/max 7/6.87/8
Step   300/2000   15.0% | t 15.000 | ETA 2m 43s | step 0.09s | KE 4429.4309 | drift -0.35% | fluid 231.7140 | solid 4197.7169
  Impulse FP iterations last/mean/max 7/6.84/8
Step   400/2000   20.0% | t 20.000 | ETA 2m 33s | step 0.10s | KE 4432.5998 | drift -0.28% | fluid 190.2856 | solid 4242.3142
  Impulse FP iterations last/mean/max 8/6.83/8
Step   500/2000   25.0% | t 25.000 | ETA 2m 24s | step 0.09s | KE 4433.3561 | drift -0.27% | fluid 183.7399 | solid 4249.6162
  Impulse FP iterations last/mean/max 7/6.83/8
Step   600/2000   30.0% | t 30.000 | ETA 2m 15s | step 0.08s | KE 4432.8178 | drift -0.28% | fluid 204.6667 | solid 4228.1511
  Impulse FP iterations last/mean/max 6/6.84/8
Step   700/2000   35.0% | t 35.000 | ETA 2m 5s | step 0.10s | KE 4432.0648 | drift -0.30% | fluid 227.8126 | solid 4204.2521
  Impulse FP iterations last/mean/max 7/6.85/8
Step   800/2000   40.0% | t 40.000 | ETA 1m 55s | step 0.11s | KE 4433.9421 | drift -0.25% | fluid 178.5663 | solid 4255.3758
  Impulse FP iterations last/mean/max 7/6.84/8
Step   900/2000   45.0% | t 45.000 | ETA 1m 46s | step 0.09s | KE 4433.7189 | drift -0.26% | fluid 183.2317 | solid 4250.4873
  Impulse FP iterations last/mean/max 7/6.84/8
Step  1000/2000   50.0% | t 50.000 | ETA 1m 36s | step 0.08s | KE 4432.7632 | drift -0.28% | fluid 210.3833 | solid 4222.3799
  Impulse FP iterations last/mean/max 6/6.84/8
Step  1100/2000   55.0% | t 55.000 | ETA 1m 26s | step 0.09s | KE 4432.2759 | drift -0.29% | fluid 223.3576 | solid 4208.9183
  Impulse FP iterations last/mean/max 6/6.84/8
Step  1200/2000   60.0% | t 60.000 | ETA 1m 17s | step 0.10s | KE 4433.9689 | drift -0.25% | fluid 177.4208 | solid 4256.5480
  Impulse FP iterations last/mean/max 7/6.84/8
Step  1300/2000   65.0% | t 65.000 | ETA 1m 7s | step 0.10s | KE 4433.4635 | drift -0.26% | fluid 190.4045 | solid 4243.0590
  Impulse FP iterations last/mean/max 7/6.84/8
Step  1400/2000   70.0% | t 70.000 | ETA 57s | step 0.09s | KE 4432.3952 | drift -0.29% | fluid 218.8384 | solid 4213.5568
  Impulse FP iterations last/mean/max 6/6.84/8
Step  1500/2000   75.0% | t 75.000 | ETA 48s | step 0.10s | KE 4432.5634 | drift -0.28% | fluid 212.8457 | solid 4219.7177
  Impulse FP iterations last/mean/max 7/6.84/8
Step  1600/2000   80.0% | t 80.000 | ETA 38s | step 0.10s | KE 4434.0044 | drift -0.25% | fluid 171.8249 | solid 4262.1795
  Impulse FP iterations last/mean/max 7/6.84/8
Step  1700/2000   85.0% | t 85.000 | ETA 28s | step 0.10s | KE 4433.2763 | drift -0.27% | fluid 192.7701 | solid 4240.5062
  Impulse FP iterations last/mean/max 7/6.84/8
Step  1800/2000   90.0% | t 90.000 | ETA 19s | step 0.08s | KE 4432.2232 | drift -0.29% | fluid 223.1146 | solid 4209.1085
  Impulse FP iterations last/mean/max 6/6.84/8
Step  1900/2000   95.0% | t 95.000 | ETA 9s | step 0.07s | KE 4432.9465 | drift -0.28% | fluid 205.2064 | solid 4227.7402
  Impulse FP iterations last/mean/max 7/6.84/8
Solver finished successfully - good job!
Results saved successfully.

================== Run summary ==================
  Bodies:            2
  Triangles / nodes: 256 / 516
  Timesteps:         2000  (dt = 0.05)
  Simulated time:    0 -> 100
  First-step setup:  7.318 s
  Mean time/step:    0.0936 s  (excl. first step)
  Total wall time:   3m 14s
  Impulse FP iters last/mean/max: 7 / 6.840 / 8
  Approx impulse solves/step:     6.840
  Impulse start cache hits/direct: 1999 / 1
  Impulse global drift P/H:       5.765454e-10 / 1.605967e-2
  Impulse per-body max drift P/H: 5.974581e-10 / 1.680768e-3
  CPU cores:         256 available, 8 Rayon worker thread(s)
  Started:           2026-06-22 19:23:17
  Finished:          2026-06-22 19:26:33
  Output file:       /work/e643/e643/shared/multi_ellip/studies/two_body_paper_sweeps/runs/spheroid_1_0p7_0p7/spheroid_1_0p7_0p7_rho10_E0p2_sep8_run02_impulse_noproj/multiple_body_complete.dat
================================================
