
================ Simulation setup ================
  Run label:         /work/e643/e643/shared/multi_ellip/studies/departing_sphericity_sweep/runs/triaxial/homogeneous/triaxial_homogeneous_eps1_rho1_E0p5_sep8_run03_impulse_noproj/
  Started:           2026-06-24 02:30:22
  Input file:        /work/e643/e643/shared/multi_ellip/studies/departing_sphericity_sweep/runs/triaxial/homogeneous/triaxial_homogeneous_eps1_rho1_E0p5_sep8_run03_impulse_noproj/input.txt
  Output file:       /work/e643/e643/shared/multi_ellip/studies/departing_sphericity_sweep/runs/triaxial/homogeneous/triaxial_homogeneous_eps1_rho1_E0p5_sep8_run03_impulse_noproj/multiple_body_complete.dat
  Bodies:            2
  Fluid density:     1
  Mesh:              ndiv 2 -> 256 triangles / 516 nodes
  Simulated time:    0 -> 100  (dt = 0.05, ~2000 steps)
  Output cadence:    every 1 step(s)
  Output rows:       ~2001
  Progress cadence:  every 100 step(s)
  CPU cores:         256 available, 8 Rayon worker thread(s)
  Strong coupling:   disabled
  Impulse scheme:    enabled
  Hamiltonian step:  disabled
  Hamiltonian midpt: disabled
  Variational step:  disabled
  Energy projection: disabled
  Projection particular metric: Euclidean
  Fluid KE gradient: disabled  (eps = 0.001, scale = 1, linear = 1, angular = 1)
  Fluid KE discrete gradient: disabled
  Impulse pair metric correction: disabled  (mode = pair discrete-gradient, cutoff = all pairs, inner/outer = 0/0, eps = 0.001, linear scale = 1, angular scale = 0)
  Impulse metric correction: disabled  (internal load constraint = disabled)
  Impulse variational defect probe: disabled
  Impulse quadratic pressure: disabled  (scale = 1)
  Added-mass stab:   disabled
  Exact BEM geometry: disabled
  Exact singular BEM: disabled
  Legacy singular SLP diagnostic: disabled
  Phi-dot blend:     0 (off)

  Solver guidance:
    - Strong coupling: use for stiff close-coupled runs; slower but more implicit.
    - Impulse scheme: use when impulse/momentum conservation or KE drift is the focus. Recommended.
    - Added-mass stab: use for higher mesh counts (ndiv > 3) to preserve stability - deprecated.
================================================
Solver starting - good luck!

Initial state:
  Body  1
    density:          1.000000
    shape axes ratio: (1.000000, 0.500000, 0.250000)
    initial KE ratio: 0.500000
    position:         (-4.000000, 0.000000, 0.000000)
    velocity:         (-0.477501, -1.192410, 4.976548)
    angular velocity: (-5.858933, 1.871106, -1.284634)
    orientation:      (w=-0.719514, i=-0.131573, j=-0.681900, k=-0.000020)
  Body  2
    density:          1.000000
    shape axes ratio: (1.000000, 0.500000, 0.250000)
    initial KE ratio: 0.500000
    position:         (4.000000, 0.000000, 0.000000)
    velocity:         (-0.794179, -1.983215, 8.276992)
    angular velocity: (0.641247, -4.190301, 4.637737)
    orientation:      (w=-0.785120, i=-0.510072, j=0.349144, k=0.038880)

Preparing first step: implicit scheme, no bootstrap passes required.
First step may take longer than later steps.

First step completed in 0.479 s.

Step   100/2000    5.0% | t 5.000 | ETA 7m 47s | step 0.25s | KE 465.6535 | drift -0.68% | fluid 192.8672 | solid 272.7863
  Impulse FP iterations last/mean/max 17/16.66/19
Step   200/2000   10.0% | t 10.000 | ETA 7m 19s | step 0.23s | KE 466.0165 | drift -0.60% | fluid 151.2080 | solid 314.8084
  Impulse FP iterations last/mean/max 16/16.62/19
Step   300/2000   15.0% | t 15.000 | ETA 6m 56s | step 0.23s | KE 468.9977 | drift +0.04% | fluid 132.0755 | solid 336.9221
  Impulse FP iterations last/mean/max 16/16.70/19
Step   400/2000   20.0% | t 20.000 | ETA 6m 31s | step 0.25s | KE 470.6349 | drift +0.39% | fluid 148.8481 | solid 321.7869
  Impulse FP iterations last/mean/max 17/16.68/20
Step   500/2000   25.0% | t 25.000 | ETA 6m 6s | step 0.25s | KE 468.2615 | drift -0.12% | fluid 170.2756 | solid 297.9859
  Impulse FP iterations last/mean/max 17/16.65/20
Step   600/2000   30.0% | t 30.000 | ETA 5m 42s | step 0.24s | KE 465.4432 | drift -0.72% | fluid 176.8500 | solid 288.5932
  Impulse FP iterations last/mean/max 17/16.68/20
Step   700/2000   35.0% | t 35.000 | ETA 5m 18s | step 0.26s | KE 465.4597 | drift -0.72% | fluid 178.4936 | solid 286.9662
  Impulse FP iterations last/mean/max 17/16.67/20
Step   800/2000   40.0% | t 40.000 | ETA 4m 53s | step 0.22s | KE 468.4269 | drift -0.08% | fluid 143.0062 | solid 325.4208
  Impulse FP iterations last/mean/max 16/16.66/20
Step   900/2000   45.0% | t 45.000 | ETA 4m 28s | step 0.24s | KE 470.3013 | drift +0.32% | fluid 172.0918 | solid 298.2095
  Impulse FP iterations last/mean/max 18/16.65/20
Step  1000/2000   50.0% | t 50.000 | ETA 4m 1s | step 0.24s | KE 466.2187 | drift -0.55% | fluid 173.3273 | solid 292.8913
  Impulse FP iterations last/mean/max 17/16.65/20
Step  1100/2000   55.0% | t 55.000 | ETA 3m 34s | step 0.21s | KE 467.5252 | drift -0.28% | fluid 188.9069 | solid 278.6183
  Impulse FP iterations last/mean/max 18/16.65/20
Step  1200/2000   60.0% | t 60.000 | ETA 3m 7s | step 0.17s | KE 467.7418 | drift -0.23% | fluid 165.7466 | solid 301.9952
  Impulse FP iterations last/mean/max 16/16.66/20
Step  1300/2000   65.0% | t 65.000 | ETA 2m 41s | step 0.18s | KE 466.5310 | drift -0.49% | fluid 144.8391 | solid 321.6919
  Impulse FP iterations last/mean/max 17/16.65/20
Step  1400/2000   70.0% | t 70.000 | ETA 2m 15s | step 0.17s | KE 467.5868 | drift -0.26% | fluid 185.9602 | solid 281.6266
  Impulse FP iterations last/mean/max 18/16.64/20
Step  1500/2000   75.0% | t 75.000 | ETA 1m 50s | step 0.15s | KE 466.1674 | drift -0.57% | fluid 166.5129 | solid 299.6545
  Impulse FP iterations last/mean/max 16/16.65/20
Step  1600/2000   80.0% | t 80.000 | ETA 1m 26s | step 0.15s | KE 469.7981 | drift +0.21% | fluid 184.3769 | solid 285.4212
  Impulse FP iterations last/mean/max 17/16.65/20
Step  1700/2000   85.0% | t 85.000 | ETA 1m 3s | step 0.15s | KE 468.4523 | drift -0.08% | fluid 143.5258 | solid 324.9265
  Impulse FP iterations last/mean/max 17/16.65/20
Step  1800/2000   90.0% | t 90.000 | ETA 41s | step 0.14s | KE 465.5992 | drift -0.69% | fluid 166.3364 | solid 299.2628
  Impulse FP iterations last/mean/max 16/16.66/20
Step  1900/2000   95.0% | t 95.000 | ETA 20s | step 0.18s | KE 465.1798 | drift -0.78% | fluid 208.2752 | solid 256.9046
  Impulse FP iterations last/mean/max 19/16.67/20
Solver finished successfully - good job!
Results saved successfully.

================== Run summary ==================
  Bodies:            2
  Triangles / nodes: 256 / 516
  Timesteps:         2000  (dt = 0.05)
  Simulated time:    0 -> 100
  First-step setup:  0.479 s
  Mean time/step:    0.2046 s  (excl. first step)
  Total wall time:   6m 49s
  Impulse FP iters last/mean/max: 16 / 16.666 / 20
  Approx impulse solves/step:     16.667
  Impulse start cache hits/direct: 1999 / 1
  Impulse global drift P/H:       2.583367e-9 / 2.522659e-2
  Impulse per-body max drift P/H: 6.175836e-9 / 3.118764e-2
  CPU cores:         256 available, 8 Rayon worker thread(s)
  Started:           2026-06-24 02:30:22
  Finished:          2026-06-24 02:37:12
  Output file:       /work/e643/e643/shared/multi_ellip/studies/departing_sphericity_sweep/runs/triaxial/homogeneous/triaxial_homogeneous_eps1_rho1_E0p5_sep8_run03_impulse_noproj/multiple_body_complete.dat
================================================
