
================ Simulation setup ================
  Run label:         /work/e643/e643/shared/multi_ellip/studies/two_body_paper_sweeps/runs/spheroid_1_0p7_0p7/spheroid_1_0p7_0p7_rho0p1_E1p5_sep11_run03_impulse_noproj/
  Started:           2026-06-24 02:06:35
  Input file:        /work/e643/e643/shared/multi_ellip/studies/two_body_paper_sweeps/runs/spheroid_1_0p7_0p7/spheroid_1_0p7_0p7_rho0p1_E1p5_sep11_run03_impulse_noproj/input.txt
  Output file:       /work/e643/e643/shared/multi_ellip/studies/two_body_paper_sweeps/runs/spheroid_1_0p7_0p7/spheroid_1_0p7_0p7_rho0p1_E1p5_sep11_run03_impulse_noproj/multiple_body_complete.dat
  Bodies:            2
  Fluid density:     1
  Mesh:              ndiv 2 -> 256 triangles / 516 nodes
  Simulated time:    0 -> 100  (dt = 0.05, ~2000 steps)
  Output cadence:    every 1 step(s)
  Output rows:       ~2001
  Progress cadence:  every 100 step(s)
  CPU cores:         256 available, 8 Rayon worker thread(s)
  Strong coupling:   disabled
  Impulse scheme:    enabled
  Hamiltonian step:  disabled
  Hamiltonian midpt: disabled
  Variational step:  disabled
  Energy projection: disabled
  Projection particular metric: Euclidean
  Fluid KE gradient: disabled  (eps = 0.001, scale = 1, linear = 1, angular = 1)
  Fluid KE discrete gradient: disabled
  Impulse pair metric correction: disabled  (mode = pair discrete-gradient, cutoff = all pairs, inner/outer = 0/0, eps = 0.001, linear scale = 1, angular scale = 0)
  Impulse metric correction: disabled  (internal load constraint = disabled)
  Impulse variational defect probe: disabled
  Impulse quadratic pressure: disabled  (scale = 1)
  Added-mass stab:   disabled
  Exact BEM geometry: disabled
  Exact singular BEM: disabled
  Legacy singular SLP diagnostic: disabled
  Phi-dot blend:     0 (off)

  Solver guidance:
    - Strong coupling: use for stiff close-coupled runs; slower but more implicit.
    - Impulse scheme: use when impulse/momentum conservation or KE drift is the focus. Recommended.
    - Added-mass stab: use for higher mesh counts (ndiv > 3) to preserve stability - deprecated.
================================================
Solver starting - good luck!

Initial state:
  Body  1
    density:          0.100000
    shape axes ratio: (1.000000, 0.700000, 0.700000)
    initial KE ratio: 1.500000
    position:         (-5.500000, 0.000000, 0.000000)
    velocity:         (0.643993, 3.482754, 0.218789)
    angular velocity: (0.494043, -5.943590, -1.976884)
    orientation:      (w=0.756145, i=-0.212585, j=-0.408282, k=-0.465144)
  Body  2
    density:          0.100000
    shape axes ratio: (1.000000, 0.700000, 0.700000)
    initial KE ratio: 1.500000
    position:         (5.500000, 0.000000, 0.000000)
    velocity:         (0.643464, 3.479896, 0.218609)
    angular velocity: (-0.657965, 5.861579, 2.165040)
    orientation:      (w=0.494850, i=-0.642347, j=-0.563412, k=-0.158368)

Preparing first step: implicit scheme, no bootstrap passes required.
First step may take longer than later steps.

First step completed in 0.329 s.

Step   100/2000    5.0% | t 5.000 | ETA 6m 30s | step 0.24s | KE 46.7617 | drift +0.06% | fluid 33.8315 | solid 12.9302
  Impulse FP iterations last/mean/max 17/15.22/17
Step   200/2000   10.0% | t 10.000 | ETA 6m 20s | step 0.21s | KE 46.8884 | drift +0.33% | fluid 34.0498 | solid 12.8386
  Impulse FP iterations last/mean/max 15/15.20/17
Step   300/2000   15.0% | t 15.000 | ETA 6m 3s | step 0.22s | KE 46.7483 | drift +0.03% | fluid 34.4388 | solid 12.3095
  Impulse FP iterations last/mean/max 15/15.20/18
Step   400/2000   20.0% | t 20.000 | ETA 5m 43s | step 0.22s | KE 46.8038 | drift +0.15% | fluid 33.9786 | solid 12.8252
  Impulse FP iterations last/mean/max 15/15.21/18
Step   500/2000   25.0% | t 25.000 | ETA 5m 23s | step 0.21s | KE 46.7539 | drift +0.04% | fluid 34.1077 | solid 12.6461
  Impulse FP iterations last/mean/max 15/15.21/18
Step   600/2000   30.0% | t 30.000 | ETA 5m 2s | step 0.22s | KE 46.7210 | drift -0.03% | fluid 34.3166 | solid 12.4044
  Impulse FP iterations last/mean/max 15/15.21/18
Step   700/2000   35.0% | t 35.000 | ETA 4m 40s | step 0.18s | KE 46.9334 | drift +0.43% | fluid 34.1187 | solid 12.8147
  Impulse FP iterations last/mean/max 13/15.19/18
Step   800/2000   40.0% | t 40.000 | ETA 4m 19s | step 0.24s | KE 46.7906 | drift +0.12% | fluid 34.1818 | solid 12.6088
  Impulse FP iterations last/mean/max 16/15.19/18
Step   900/2000   45.0% | t 45.000 | ETA 3m 57s | step 0.24s | KE 46.7245 | drift -0.02% | fluid 33.9955 | solid 12.7290
  Impulse FP iterations last/mean/max 16/15.17/18
Step  1000/2000   50.0% | t 50.000 | ETA 3m 36s | step 0.23s | KE 46.8694 | drift +0.29% | fluid 34.2595 | solid 12.6099
  Impulse FP iterations last/mean/max 16/15.18/18
Step  1100/2000   55.0% | t 55.000 | ETA 3m 15s | step 0.22s | KE 46.7229 | drift -0.03% | fluid 34.4940 | solid 12.2289
  Impulse FP iterations last/mean/max 15/15.18/18
Step  1200/2000   60.0% | t 60.000 | ETA 2m 53s | step 0.23s | KE 46.7847 | drift +0.11% | fluid 33.8228 | solid 12.9619
  Impulse FP iterations last/mean/max 16/15.18/18
Step  1300/2000   65.0% | t 65.000 | ETA 2m 32s | step 0.22s | KE 46.8729 | drift +0.30% | fluid 34.0051 | solid 12.8678
  Impulse FP iterations last/mean/max 15/15.19/18
Step  1400/2000   70.0% | t 70.000 | ETA 2m 10s | step 0.22s | KE 46.7487 | drift +0.03% | fluid 34.4165 | solid 12.3322
  Impulse FP iterations last/mean/max 15/15.18/18
Step  1500/2000   75.0% | t 75.000 | ETA 1m 48s | step 0.23s | KE 46.8354 | drift +0.22% | fluid 34.0726 | solid 12.7628
  Impulse FP iterations last/mean/max 16/15.19/18
Step  1600/2000   80.0% | t 80.000 | ETA 1m 26s | step 0.21s | KE 46.7388 | drift +0.01% | fluid 34.1466 | solid 12.5922
  Impulse FP iterations last/mean/max 15/15.18/18
Step  1700/2000   85.0% | t 85.000 | ETA 1m 5s | step 0.21s | KE 46.7229 | drift -0.02% | fluid 34.2010 | solid 12.5219
  Impulse FP iterations last/mean/max 15/15.19/18
Step  1800/2000   90.0% | t 90.000 | ETA 43s | step 0.20s | KE 46.9471 | drift +0.45% | fluid 34.1594 | solid 12.7878
  Impulse FP iterations last/mean/max 14/15.19/18
Step  1900/2000   95.0% | t 95.000 | ETA 21s | step 0.17s | KE 46.7830 | drift +0.10% | fluid 34.2721 | solid 12.5109
  Impulse FP iterations last/mean/max 15/15.19/18
Solver finished successfully - good job!
Results saved successfully.

================== Run summary ==================
  Bodies:            2
  Triangles / nodes: 256 / 516
  Timesteps:         2000  (dt = 0.05)
  Simulated time:    0 -> 100
  First-step setup:  0.329 s
  Mean time/step:    0.2156 s  (excl. first step)
  Total wall time:   7m 11s
  Impulse FP iters last/mean/max: 16 / 15.190 / 18
  Approx impulse solves/step:     15.191
  Impulse start cache hits/direct: 1999 / 1
  Impulse global drift P/H:       4.247715e-8 / 1.200592e-3
  Impulse per-body max drift P/H: 5.941183e-8 / 4.332612e-4
  CPU cores:         256 available, 8 Rayon worker thread(s)
  Started:           2026-06-24 02:06:35
  Finished:          2026-06-24 02:13:47
  Output file:       /work/e643/e643/shared/multi_ellip/studies/two_body_paper_sweeps/runs/spheroid_1_0p7_0p7/spheroid_1_0p7_0p7_rho0p1_E1p5_sep11_run03_impulse_noproj/multiple_body_complete.dat
================================================
