
================ Simulation setup ================
  Run label:         /work/e643/e643/shared/multi_ellip/studies/departing_sphericity_sweep/runs/spheroid_prolate/homogeneous/spheroid_prolate_homogeneous_eps0_rho1_E0p5_sep8_run05_impulse_noproj/
  Started:           2026-06-24 02:23:10
  Input file:        /work/e643/e643/shared/multi_ellip/studies/departing_sphericity_sweep/runs/spheroid_prolate/homogeneous/spheroid_prolate_homogeneous_eps0_rho1_E0p5_sep8_run05_impulse_noproj/input.txt
  Output file:       /work/e643/e643/shared/multi_ellip/studies/departing_sphericity_sweep/runs/spheroid_prolate/homogeneous/spheroid_prolate_homogeneous_eps0_rho1_E0p5_sep8_run05_impulse_noproj/multiple_body_complete.dat
  Bodies:            2
  Fluid density:     1
  Mesh:              ndiv 2 -> 256 triangles / 516 nodes
  Simulated time:    0 -> 100  (dt = 0.05, ~2000 steps)
  Output cadence:    every 1 step(s)
  Output rows:       ~2001
  Progress cadence:  every 100 step(s)
  CPU cores:         256 available, 8 Rayon worker thread(s)
  Strong coupling:   disabled
  Impulse scheme:    enabled
  Hamiltonian step:  disabled
  Hamiltonian midpt: disabled
  Variational step:  disabled
  Energy projection: disabled
  Projection particular metric: Euclidean
  Fluid KE gradient: disabled  (eps = 0.001, scale = 1, linear = 1, angular = 1)
  Fluid KE discrete gradient: disabled
  Impulse pair metric correction: disabled  (mode = pair discrete-gradient, cutoff = all pairs, inner/outer = 0/0, eps = 0.001, linear scale = 1, angular scale = 0)
  Impulse metric correction: disabled  (internal load constraint = disabled)
  Impulse variational defect probe: disabled
  Impulse quadratic pressure: disabled  (scale = 1)
  Added-mass stab:   disabled
  Exact BEM geometry: disabled
  Exact singular BEM: disabled
  Legacy singular SLP diagnostic: disabled
  Phi-dot blend:     0 (off)

  Solver guidance:
    - Strong coupling: use for stiff close-coupled runs; slower but more implicit.
    - Impulse scheme: use when impulse/momentum conservation or KE drift is the focus. Recommended.
    - Added-mass stab: use for higher mesh counts (ndiv > 3) to preserve stability - deprecated.
================================================
Solver starting - good luck!

Initial state:
  Body  1
    density:          1.000000
    shape axes ratio: (1.000000, 1.000000, 1.000000)
    initial KE ratio: 0.500000
    position:         (-4.000000, 0.000000, 0.000000)
    velocity:         (-1.619013, -5.178932, -1.462940)
    angular velocity: (0.011888, -1.507497, 6.099650)
    orientation:      (w=-0.076208, i=-0.239783, j=0.096262, k=-0.963032)
  Body  2
    density:          1.000000
    shape axes ratio: (1.000000, 1.000000, 1.000000)
    initial KE ratio: 0.500000
    position:         (4.000000, 0.000000, 0.000000)
    velocity:         (-1.619013, -5.178932, -1.462940)
    angular velocity: (5.136404, 3.156778, -1.769330)
    orientation:      (w=-0.051097, i=-0.202108, j=0.523906, k=-0.825872)

Preparing first step: implicit scheme, no bootstrap passes required.
First step may take longer than later steps.

First step completed in 9.213 s.

Step   100/2000    5.0% | t 5.000 | ETA 2m 22s | step 0.06s | KE 268.1045 | drift -1.07% | fluid 72.5580 | solid 195.5465
  Impulse FP iterations last/mean/max 5/5.37/6
Step   200/2000   10.0% | t 10.000 | ETA 2m 15s | step 0.09s | KE 266.1953 | drift -1.77% | fluid 72.5580 | solid 193.6373
  Impulse FP iterations last/mean/max 6/5.41/6
Step   300/2000   15.0% | t 15.000 | ETA 2m 8s | step 0.07s | KE 265.2704 | drift -2.11% | fluid 72.5580 | solid 192.7124
  Impulse FP iterations last/mean/max 5/5.43/6
Step   400/2000   20.0% | t 20.000 | ETA 1m 58s | step 0.07s | KE 265.3300 | drift -2.09% | fluid 72.5580 | solid 192.7720
  Impulse FP iterations last/mean/max 6/5.44/6
Step   500/2000   25.0% | t 25.000 | ETA 1m 49s | step 0.07s | KE 266.3741 | drift -1.71% | fluid 72.5580 | solid 193.8161
  Impulse FP iterations last/mean/max 6/5.47/6
Step   600/2000   30.0% | t 30.000 | ETA 1m 42s | step 0.07s | KE 268.4026 | drift -0.96% | fluid 72.5580 | solid 195.8446
  Impulse FP iterations last/mean/max 5/5.47/6
Step   700/2000   35.0% | t 35.000 | ETA 1m 36s | step 0.09s | KE 271.4154 | drift +0.15% | fluid 72.5580 | solid 198.8574
  Impulse FP iterations last/mean/max 6/5.47/6
Step   800/2000   40.0% | t 40.000 | ETA 1m 28s | step 0.09s | KE 275.4127 | drift +1.63% | fluid 72.5580 | solid 202.8547
  Impulse FP iterations last/mean/max 6/5.45/6
Step   900/2000   45.0% | t 45.000 | ETA 1m 21s | step 0.08s | KE 280.3943 | drift +3.47% | fluid 72.5580 | solid 207.8364
  Impulse FP iterations last/mean/max 6/5.45/6
Step  1000/2000   50.0% | t 50.000 | ETA 1m 14s | step 0.08s | KE 286.3602 | drift +5.67% | fluid 72.5580 | solid 213.8023
  Impulse FP iterations last/mean/max 6/5.43/6
Step  1100/2000   55.0% | t 55.000 | ETA 1m 6s | step 0.07s | KE 293.3104 | drift +8.23% | fluid 72.5580 | solid 220.7524
  Impulse FP iterations last/mean/max 5/5.42/6
Step  1200/2000   60.0% | t 60.000 | ETA 59s | step 0.07s | KE 301.2453 | drift +11.16% | fluid 72.5580 | solid 228.6873
  Impulse FP iterations last/mean/max 5/5.40/6
Step  1300/2000   65.0% | t 65.000 | ETA 51s | step 0.09s | KE 310.1652 | drift +14.45% | fluid 72.5580 | solid 237.6072
  Impulse FP iterations last/mean/max 6/5.39/6
Step  1400/2000   70.0% | t 70.000 | ETA 44s | step 0.07s | KE 320.0685 | drift +18.11% | fluid 72.5580 | solid 247.5104
  Impulse FP iterations last/mean/max 5/5.37/6
Step  1500/2000   75.0% | t 75.000 | ETA 36s | step 0.07s | KE 330.9561 | drift +22.12% | fluid 72.5580 | solid 258.3981
  Impulse FP iterations last/mean/max 5/5.36/6
Step  1600/2000   80.0% | t 80.000 | ETA 29s | step 0.07s | KE 342.8278 | drift +26.51% | fluid 72.5580 | solid 270.2698
  Impulse FP iterations last/mean/max 5/5.34/6
Step  1700/2000   85.0% | t 85.000 | ETA 22s | step 0.07s | KE 355.6838 | drift +31.25% | fluid 72.5580 | solid 283.1258
  Impulse FP iterations last/mean/max 5/5.33/6
Step  1800/2000   90.0% | t 90.000 | ETA 14s | step 0.09s | KE 369.5238 | drift +36.36% | fluid 72.5580 | solid 296.9657
  Impulse FP iterations last/mean/max 6/5.31/6
Step  1900/2000   95.0% | t 95.000 | ETA 7s | step 0.08s | KE 384.3480 | drift +41.83% | fluid 72.5581 | solid 311.7899
  Impulse FP iterations last/mean/max 6/5.30/6
Solver finished successfully - good job!
Results saved successfully.

================== Run summary ==================
  Bodies:            2
  Triangles / nodes: 256 / 516
  Timesteps:         2000  (dt = 0.05)
  Simulated time:    0 -> 100
  First-step setup:  9.213 s
  Mean time/step:    0.0730 s  (excl. first step)
  Total wall time:   2m 35s
  Impulse FP iters last/mean/max: 5 / 5.289 / 6
  Approx impulse solves/step:     5.289
  Impulse start cache hits/direct: 1999 / 1
  Impulse global drift P/H:       2.200730e-9 / 2.780483e-2
  Impulse per-body max drift P/H: 9.825042e-9 / 2.238756e-3
  CPU cores:         256 available, 8 Rayon worker thread(s)
  Started:           2026-06-24 02:23:10
  Finished:          2026-06-24 02:25:45
  Output file:       /work/e643/e643/shared/multi_ellip/studies/departing_sphericity_sweep/runs/spheroid_prolate/homogeneous/spheroid_prolate_homogeneous_eps0_rho1_E0p5_sep8_run05_impulse_noproj/multiple_body_complete.dat
================================================
