
================ Simulation setup ================
  Run label:         /work/e643/e643/shared/multi_ellip/studies/two_body_paper_sweeps/runs/spheroid_1_0p7_0p7/spheroid_1_0p7_0p7_rho4_E1p5_sep11_run01_impulse_noproj/
  Started:           2026-06-22 19:30:31
  Input file:        /work/e643/e643/shared/multi_ellip/studies/two_body_paper_sweeps/runs/spheroid_1_0p7_0p7/spheroid_1_0p7_0p7_rho4_E1p5_sep11_run01_impulse_noproj/input.txt
  Output file:       /work/e643/e643/shared/multi_ellip/studies/two_body_paper_sweeps/runs/spheroid_1_0p7_0p7/spheroid_1_0p7_0p7_rho4_E1p5_sep11_run01_impulse_noproj/multiple_body_complete.dat
  Bodies:            2
  Fluid density:     1
  Mesh:              ndiv 2 -> 256 triangles / 516 nodes
  Simulated time:    0 -> 100  (dt = 0.05, ~2000 steps)
  Output cadence:    every 1 step(s)
  Output rows:       ~2001
  Progress cadence:  every 100 step(s)
  CPU cores:         256 available, 8 Rayon worker thread(s)
  Strong coupling:   disabled
  Impulse scheme:    enabled
  Hamiltonian step:  disabled
  Hamiltonian midpt: disabled
  Variational step:  disabled
  Energy projection: disabled
  Projection particular metric: Euclidean
  Fluid KE gradient: disabled  (eps = 0.001, scale = 1, linear = 1, angular = 1)
  Fluid KE discrete gradient: disabled
  Impulse pair metric correction: disabled  (mode = pair discrete-gradient, cutoff = all pairs, inner/outer = 0/0, eps = 0.001, linear scale = 1, angular scale = 0)
  Impulse metric correction: disabled  (internal load constraint = disabled)
  Impulse variational defect probe: disabled
  Impulse quadratic pressure: disabled  (scale = 1)
  Added-mass stab:   disabled
  Exact BEM geometry: disabled
  Exact singular BEM: disabled
  Legacy singular SLP diagnostic: disabled
  Phi-dot blend:     0 (off)

  Solver guidance:
    - Strong coupling: use for stiff close-coupled runs; slower but more implicit.
    - Impulse scheme: use when impulse/momentum conservation or KE drift is the focus. Recommended.
    - Added-mass stab: use for higher mesh counts (ndiv > 3) to preserve stability - deprecated.
================================================
Solver starting - good luck!

Initial state:
  Body  1
    density:          4.000000
    shape axes ratio: (1.000000, 0.700000, 0.700000)
    initial KE ratio: 1.500000
    position:         (-5.500000, 0.000000, 0.000000)
    velocity:         (1.236442, 3.099963, 1.114381)
    angular velocity: (-1.476378, 2.564556, -5.542723)
    orientation:      (w=0.447214, i=0.894427, j=0.000000, k=0.000000)
  Body  2
    density:          4.000000
    shape axes ratio: (1.000000, 0.700000, 0.700000)
    initial KE ratio: 1.500000
    position:         (5.500000, 0.000000, 0.000000)
    velocity:         (1.212258, 3.039330, 1.092585)
    angular velocity: (2.561837, 2.221877, 5.289487)
    orientation:      (w=0.707107, i=0.000000, j=0.707107, k=0.000000)

Preparing first step: implicit scheme, no bootstrap passes required.
First step may take longer than later steps.

First step completed in 0.233 s.

Step   100/2000    5.0% | t 5.000 | ETA 3m 10s | step 0.10s | KE 515.8880 | drift +0.14% | fluid 25.8578 | solid 490.0302
  Impulse FP iterations last/mean/max 7/7.26/8
Step   200/2000   10.0% | t 10.000 | ETA 3m 3s | step 0.10s | KE 516.3417 | drift +0.23% | fluid 30.7467 | solid 485.5949
  Impulse FP iterations last/mean/max 7/7.24/8
Step   300/2000   15.0% | t 15.000 | ETA 2m 54s | step 0.10s | KE 516.6676 | drift +0.29% | fluid 31.9809 | solid 484.6867
  Impulse FP iterations last/mean/max 7/7.22/8
Step   400/2000   20.0% | t 20.000 | ETA 2m 44s | step 0.10s | KE 516.9921 | drift +0.35% | fluid 32.8115 | solid 484.1806
  Impulse FP iterations last/mean/max 7/7.22/8
Step   500/2000   25.0% | t 25.000 | ETA 2m 34s | step 0.10s | KE 517.3636 | drift +0.42% | fluid 36.0699 | solid 481.2936
  Impulse FP iterations last/mean/max 7/7.22/8
Step   600/2000   30.0% | t 30.000 | ETA 2m 24s | step 0.10s | KE 517.8019 | drift +0.51% | fluid 27.3636 | solid 490.4382
  Impulse FP iterations last/mean/max 7/7.22/8
Step   700/2000   35.0% | t 35.000 | ETA 2m 14s | step 0.10s | KE 518.0161 | drift +0.55% | fluid 29.1912 | solid 488.8249
  Impulse FP iterations last/mean/max 7/7.22/8
Step   800/2000   40.0% | t 40.000 | ETA 2m 4s | step 0.10s | KE 518.0728 | drift +0.56% | fluid 31.0855 | solid 486.9873
  Impulse FP iterations last/mean/max 7/7.22/8
Step   900/2000   45.0% | t 45.000 | ETA 1m 53s | step 0.10s | KE 518.0425 | drift +0.56% | fluid 28.8630 | solid 489.1795
  Impulse FP iterations last/mean/max 7/7.22/8
Step  1000/2000   50.0% | t 50.000 | ETA 1m 43s | step 0.12s | KE 517.8969 | drift +0.53% | fluid 37.0013 | solid 480.8956
  Impulse FP iterations last/mean/max 8/7.22/8
Step  1100/2000   55.0% | t 55.000 | ETA 1m 33s | step 0.10s | KE 517.9143 | drift +0.53% | fluid 33.4634 | solid 484.4509
  Impulse FP iterations last/mean/max 7/7.21/8
Step  1200/2000   60.0% | t 60.000 | ETA 1m 22s | step 0.10s | KE 518.0366 | drift +0.56% | fluid 29.2620 | solid 488.7746
  Impulse FP iterations last/mean/max 7/7.21/8
Step  1300/2000   65.0% | t 65.000 | ETA 1m 12s | step 0.09s | KE 518.1011 | drift +0.57% | fluid 30.9019 | solid 487.1992
  Impulse FP iterations last/mean/max 7/7.21/8
Step  1400/2000   70.0% | t 70.000 | ETA 1m 2s | step 0.10s | KE 518.0816 | drift +0.56% | fluid 26.0754 | solid 492.0062
  Impulse FP iterations last/mean/max 7/7.21/8
Step  1500/2000   75.0% | t 75.000 | ETA 51s | step 0.10s | KE 517.8824 | drift +0.53% | fluid 33.2397 | solid 484.6426
  Impulse FP iterations last/mean/max 7/7.21/8
Step  1600/2000   80.0% | t 80.000 | ETA 41s | step 0.12s | KE 517.7498 | drift +0.50% | fluid 36.4451 | solid 481.3047
  Impulse FP iterations last/mean/max 8/7.21/8
Step  1700/2000   85.0% | t 85.000 | ETA 31s | step 0.10s | KE 517.8068 | drift +0.51% | fluid 30.1749 | solid 487.6319
  Impulse FP iterations last/mean/max 7/7.21/8
Step  1800/2000   90.0% | t 90.000 | ETA 20s | step 0.10s | KE 517.8557 | drift +0.52% | fluid 32.6678 | solid 485.1878
  Impulse FP iterations last/mean/max 7/7.21/8
Step  1900/2000   95.0% | t 95.000 | ETA 10s | step 0.10s | KE 517.8778 | drift +0.52% | fluid 28.0417 | solid 489.8362
  Impulse FP iterations last/mean/max 7/7.21/8
Solver finished successfully - good job!
Results saved successfully.

================== Run summary ==================
  Bodies:            2
  Triangles / nodes: 256 / 516
  Timesteps:         2000  (dt = 0.05)
  Simulated time:    0 -> 100
  First-step setup:  0.233 s
  Mean time/step:    0.1029 s  (excl. first step)
  Total wall time:   3m 25s
  Impulse FP iters last/mean/max: 7 / 7.212 / 8
  Approx impulse solves/step:     7.212
  Impulse start cache hits/direct: 1999 / 1
  Impulse global drift P/H:       1.648234e-8 / 1.752025e-2
  Impulse per-body max drift P/H: 2.189479e-8 / 2.721334e-3
  CPU cores:         256 available, 8 Rayon worker thread(s)
  Started:           2026-06-22 19:30:31
  Finished:          2026-06-22 19:33:57
  Output file:       /work/e643/e643/shared/multi_ellip/studies/two_body_paper_sweeps/runs/spheroid_1_0p7_0p7/spheroid_1_0p7_0p7_rho4_E1p5_sep11_run01_impulse_noproj/multiple_body_complete.dat
================================================
