
================ Simulation setup ================
  Run label:         /work/e643/e643/shared/multi_ellip/studies/departing_sphericity_sweep/runs/spheroid_prolate/homogeneous/spheroid_prolate_homogeneous_eps0p0003_rho1_E0p5_sep8_run07_impulse_noproj/
  Started:           2026-06-24 02:23:10
  Input file:        /work/e643/e643/shared/multi_ellip/studies/departing_sphericity_sweep/runs/spheroid_prolate/homogeneous/spheroid_prolate_homogeneous_eps0p0003_rho1_E0p5_sep8_run07_impulse_noproj/input.txt
  Output file:       /work/e643/e643/shared/multi_ellip/studies/departing_sphericity_sweep/runs/spheroid_prolate/homogeneous/spheroid_prolate_homogeneous_eps0p0003_rho1_E0p5_sep8_run07_impulse_noproj/multiple_body_complete.dat
  Bodies:            2
  Fluid density:     1
  Mesh:              ndiv 2 -> 256 triangles / 516 nodes
  Simulated time:    0 -> 100  (dt = 0.05, ~2000 steps)
  Output cadence:    every 1 step(s)
  Output rows:       ~2001
  Progress cadence:  every 100 step(s)
  CPU cores:         256 available, 8 Rayon worker thread(s)
  Strong coupling:   disabled
  Impulse scheme:    enabled
  Hamiltonian step:  disabled
  Hamiltonian midpt: disabled
  Variational step:  disabled
  Energy projection: disabled
  Projection particular metric: Euclidean
  Fluid KE gradient: disabled  (eps = 0.001, scale = 1, linear = 1, angular = 1)
  Fluid KE discrete gradient: disabled
  Impulse pair metric correction: disabled  (mode = pair discrete-gradient, cutoff = all pairs, inner/outer = 0/0, eps = 0.001, linear scale = 1, angular scale = 0)
  Impulse metric correction: disabled  (internal load constraint = disabled)
  Impulse variational defect probe: disabled
  Impulse quadratic pressure: disabled  (scale = 1)
  Added-mass stab:   disabled
  Exact BEM geometry: disabled
  Exact singular BEM: disabled
  Legacy singular SLP diagnostic: disabled
  Phi-dot blend:     0 (off)

  Solver guidance:
    - Strong coupling: use for stiff close-coupled runs; slower but more implicit.
    - Impulse scheme: use when impulse/momentum conservation or KE drift is the focus. Recommended.
    - Added-mass stab: use for higher mesh counts (ndiv > 3) to preserve stability - deprecated.
================================================
Solver starting - good luck!

Initial state:
  Body  1
    density:          1.000000
    shape axes ratio: (1.000000, 0.999101, 0.999101)
    initial KE ratio: 0.500000
    position:         (-4.000000, 0.000000, 0.000000)
    velocity:         (-0.017735, -1.602757, 5.385132)
    angular velocity: (5.704263, 2.014302, -1.697759)
    orientation:      (w=0.026153, i=0.748725, j=0.424607, k=-0.508366)
  Body  2
    density:          1.000000
    shape axes ratio: (1.000000, 0.999101, 0.999101)
    initial KE ratio: 0.500000
    position:         (4.000000, 0.000000, 0.000000)
    velocity:         (-0.017741, -1.603352, 5.387129)
    angular velocity: (0.147773, 4.494165, -4.388515)
    orientation:      (w=0.806816, i=0.346228, j=0.348639, k=0.328061)

Preparing first step: implicit scheme, no bootstrap passes required.
First step may take longer than later steps.

First step completed in 8.750 s.

Step   100/2000    5.0% | t 5.000 | ETA 2m 55s | step 0.10s | KE 270.9788 | drift -0.01% | fluid 72.5796 | solid 198.3991
  Impulse FP iterations last/mean/max 7/6.56/7
Step   200/2000   10.0% | t 10.000 | ETA 2m 45s | step 0.10s | KE 270.9960 | drift -0.00% | fluid 72.5800 | solid 198.4160
  Impulse FP iterations last/mean/max 7/6.57/7
Step   300/2000   15.0% | t 15.000 | ETA 2m 36s | step 0.09s | KE 271.0548 | drift +0.02% | fluid 72.5803 | solid 198.4745
  Impulse FP iterations last/mean/max 7/6.59/7
Step   400/2000   20.0% | t 20.000 | ETA 2m 27s | step 0.09s | KE 271.1557 | drift +0.06% | fluid 72.5807 | solid 198.5750
  Impulse FP iterations last/mean/max 7/6.61/7
Step   500/2000   25.0% | t 25.000 | ETA 2m 18s | step 0.10s | KE 271.2993 | drift +0.11% | fluid 72.5812 | solid 198.7181
  Impulse FP iterations last/mean/max 7/6.60/7
Step   600/2000   30.0% | t 30.000 | ETA 2m 9s | step 0.10s | KE 271.4864 | drift +0.18% | fluid 72.5818 | solid 198.9046
  Impulse FP iterations last/mean/max 7/6.59/7
Step   700/2000   35.0% | t 35.000 | ETA 1m 59s | step 0.09s | KE 271.7183 | drift +0.26% | fluid 72.5828 | solid 199.1355
  Impulse FP iterations last/mean/max 7/6.59/7
Step   800/2000   40.0% | t 40.000 | ETA 1m 50s | step 0.08s | KE 271.9963 | drift +0.37% | fluid 72.5839 | solid 199.4124
  Impulse FP iterations last/mean/max 6/6.59/7
Step   900/2000   45.0% | t 45.000 | ETA 1m 41s | step 0.08s | KE 272.3221 | drift +0.49% | fluid 72.5850 | solid 199.7371
  Impulse FP iterations last/mean/max 6/6.58/7
Step  1000/2000   50.0% | t 50.000 | ETA 1m 32s | step 0.10s | KE 272.6975 | drift +0.63% | fluid 72.5852 | solid 200.1123
  Impulse FP iterations last/mean/max 7/6.58/7
Step  1100/2000   55.0% | t 55.000 | ETA 1m 23s | step 0.10s | KE 273.1249 | drift +0.78% | fluid 72.5837 | solid 200.5412
  Impulse FP iterations last/mean/max 7/6.58/7
Step  1200/2000   60.0% | t 60.000 | ETA 1m 13s | step 0.09s | KE 273.6067 | drift +0.96% | fluid 72.5808 | solid 201.0259
  Impulse FP iterations last/mean/max 6/6.57/7
Step  1300/2000   65.0% | t 65.000 | ETA 1m 4s | step 0.09s | KE 274.1452 | drift +1.16% | fluid 72.5797 | solid 201.5655
  Impulse FP iterations last/mean/max 7/6.57/7
Step  1400/2000   70.0% | t 70.000 | ETA 55s | step 0.08s | KE 274.7427 | drift +1.38% | fluid 72.5843 | solid 202.1585
  Impulse FP iterations last/mean/max 6/6.57/7
Step  1500/2000   75.0% | t 75.000 | ETA 45s | step 0.09s | KE 275.4020 | drift +1.62% | fluid 72.5922 | solid 202.8098
  Impulse FP iterations last/mean/max 7/6.56/7
Step  1600/2000   80.0% | t 80.000 | ETA 36s | step 0.07s | KE 276.1266 | drift +1.89% | fluid 72.5932 | solid 203.5333
  Impulse FP iterations last/mean/max 6/6.56/7
Step  1700/2000   85.0% | t 85.000 | ETA 27s | step 0.06s | KE 276.9223 | drift +2.18% | fluid 72.5710 | solid 204.3513
  Impulse FP iterations last/mean/max 6/6.55/7
Step  1800/2000   90.0% | t 90.000 | ETA 17s | step 0.07s | KE 277.7889 | drift +2.50% | fluid 72.5737 | solid 205.2152
  Impulse FP iterations last/mean/max 7/6.54/7
Step  1900/2000   95.0% | t 95.000 | ETA 8s | step 0.06s | KE 278.7305 | drift +2.85% | fluid 72.5958 | solid 206.1347
  Impulse FP iterations last/mean/max 6/6.54/7
Solver finished successfully - good job!
Results saved successfully.

================== Run summary ==================
  Bodies:            2
  Triangles / nodes: 256 / 516
  Timesteps:         2000  (dt = 0.05)
  Simulated time:    0 -> 100
  First-step setup:  8.750 s
  Mean time/step:    0.0871 s  (excl. first step)
  Total wall time:   3m 2s
  Impulse FP iters last/mean/max: 6 / 6.539 / 7
  Approx impulse solves/step:     6.539
  Impulse start cache hits/direct: 1999 / 1
  Impulse global drift P/H:       1.556009e-8 / 2.203206e-3
  Impulse per-body max drift P/H: 2.579982e-8 / 2.159355e-4
  CPU cores:         256 available, 8 Rayon worker thread(s)
  Started:           2026-06-24 02:23:10
  Finished:          2026-06-24 02:26:14
  Output file:       /work/e643/e643/shared/multi_ellip/studies/departing_sphericity_sweep/runs/spheroid_prolate/homogeneous/spheroid_prolate_homogeneous_eps0p0003_rho1_E0p5_sep8_run07_impulse_noproj/multiple_body_complete.dat
================================================
