
================ Simulation setup ================
  Run label:         /work/e643/e643/shared/multi_ellip/studies/two_body_paper_sweeps/runs/ellipsoid_1_0p8_0p6/ellipsoid_1_0p8_0p6_rho1_E4_sep3_run05_impulse_noproj/
  Started:           2026-06-24 01:38:56
  Input file:        /work/e643/e643/shared/multi_ellip/studies/two_body_paper_sweeps/runs/ellipsoid_1_0p8_0p6/ellipsoid_1_0p8_0p6_rho1_E4_sep3_run05_impulse_noproj/input.txt
  Output file:       /work/e643/e643/shared/multi_ellip/studies/two_body_paper_sweeps/runs/ellipsoid_1_0p8_0p6/ellipsoid_1_0p8_0p6_rho1_E4_sep3_run05_impulse_noproj/multiple_body_complete.dat
  Bodies:            2
  Fluid density:     1
  Mesh:              ndiv 2 -> 256 triangles / 516 nodes
  Simulated time:    0 -> 100  (dt = 0.05, ~2000 steps)
  Output cadence:    every 1 step(s)
  Output rows:       ~2001
  Progress cadence:  every 100 step(s)
  CPU cores:         256 available, 8 Rayon worker thread(s)
  Strong coupling:   disabled
  Impulse scheme:    enabled
  Hamiltonian step:  disabled
  Hamiltonian midpt: disabled
  Variational step:  disabled
  Energy projection: disabled
  Projection particular metric: Euclidean
  Fluid KE gradient: disabled  (eps = 0.001, scale = 1, linear = 1, angular = 1)
  Fluid KE discrete gradient: disabled
  Impulse pair metric correction: disabled  (mode = pair discrete-gradient, cutoff = all pairs, inner/outer = 0/0, eps = 0.001, linear scale = 1, angular scale = 0)
  Impulse metric correction: disabled  (internal load constraint = disabled)
  Impulse variational defect probe: disabled
  Impulse quadratic pressure: disabled  (scale = 1)
  Added-mass stab:   disabled
  Exact BEM geometry: disabled
  Exact singular BEM: disabled
  Legacy singular SLP diagnostic: disabled
  Phi-dot blend:     0 (off)

  Solver guidance:
    - Strong coupling: use for stiff close-coupled runs; slower but more implicit.
    - Impulse scheme: use when impulse/momentum conservation or KE drift is the focus. Recommended.
    - Added-mass stab: use for higher mesh counts (ndiv > 3) to preserve stability - deprecated.
================================================
Solver starting - good luck!

Initial state:
  Body  1
    density:          1.000000
    shape axes ratio: (1.000000, 0.800000, 0.600000)
    initial KE ratio: 4.000000
    position:         (-1.500000, 0.000000, 0.000000)
    velocity:         (2.030828, 0.830841, -0.307202)
    angular velocity: (-0.388320, 3.991033, -4.837280)
    orientation:      (w=0.257254, i=-0.743883, j=0.249126, k=-0.564265)
  Body  2
    density:          1.000000
    shape axes ratio: (1.000000, 0.800000, 0.600000)
    initial KE ratio: 4.000000
    position:         (1.500000, 0.000000, 0.000000)
    velocity:         (1.950305, 0.797898, -0.295022)
    angular velocity: (-1.736778, 5.107513, -3.221076)
    orientation:      (w=0.169377, i=0.456903, j=-0.864305, k=-0.124608)

Preparing first step: implicit scheme, no bootstrap passes required.
First step may take longer than later steps.

First step completed in 0.358 s.

Step   100/2000    5.0% | t 5.000 | ETA 5m 43s | step 0.17s | KE 100.4250 | drift +1.20% | fluid 19.9794 | solid 80.4457
  Impulse FP iterations last/mean/max 12/11.94/15
Step   200/2000   10.0% | t 10.000 | ETA 5m 17s | step 0.16s | KE 112.4119 | drift +13.28% | fluid 16.9654 | solid 95.4465
  Impulse FP iterations last/mean/max 11/11.81/15
Step   300/2000   15.0% | t 15.000 | ETA 4m 55s | step 0.18s | KE 118.8999 | drift +19.82% | fluid 15.8122 | solid 103.0877
  Impulse FP iterations last/mean/max 12/11.70/15
Step   400/2000   20.0% | t 20.000 | ETA 4m 33s | step 0.15s | KE 118.6277 | drift +19.54% | fluid 19.9753 | solid 98.6524
  Impulse FP iterations last/mean/max 11/11.60/15
Step   500/2000   25.0% | t 25.000 | ETA 4m 13s | step 0.16s | KE 118.2620 | drift +19.17% | fluid 19.3282 | solid 98.9338
  Impulse FP iterations last/mean/max 11/11.49/15
Step   600/2000   30.0% | t 30.000 | ETA 3m 52s | step 0.14s | KE 118.5775 | drift +19.49% | fluid 15.6440 | solid 102.9335
  Impulse FP iterations last/mean/max 11/11.40/15
Step   700/2000   35.0% | t 35.000 | ETA 3m 31s | step 0.15s | KE 118.8719 | drift +19.79% | fluid 18.7585 | solid 100.1135
  Impulse FP iterations last/mean/max 11/11.32/15
Step   800/2000   40.0% | t 40.000 | ETA 3m 12s | step 0.15s | KE 118.8879 | drift +19.80% | fluid 20.1972 | solid 98.6907
  Impulse FP iterations last/mean/max 11/11.27/15
Step   900/2000   45.0% | t 45.000 | ETA 2m 55s | step 0.15s | KE 119.0275 | drift +19.94% | fluid 16.1642 | solid 102.8633
  Impulse FP iterations last/mean/max 11/11.22/15
Step  1000/2000   50.0% | t 50.000 | ETA 2m 37s | step 0.13s | KE 119.1486 | drift +20.07% | fluid 17.9538 | solid 101.1947
  Impulse FP iterations last/mean/max 10/11.20/15
Step  1100/2000   55.0% | t 55.000 | ETA 2m 21s | step 0.14s | KE 119.1608 | drift +20.08% | fluid 19.8910 | solid 99.2698
  Impulse FP iterations last/mean/max 11/11.17/15
Step  1200/2000   60.0% | t 60.000 | ETA 2m 4s | step 0.14s | KE 118.9996 | drift +19.92% | fluid 17.7303 | solid 101.2693
  Impulse FP iterations last/mean/max 11/11.14/15
Step  1300/2000   65.0% | t 65.000 | ETA 1m 48s | step 0.15s | KE 119.0871 | drift +20.00% | fluid 16.5334 | solid 102.5537
  Impulse FP iterations last/mean/max 11/11.13/15
Step  1400/2000   70.0% | t 70.000 | ETA 1m 33s | step 0.15s | KE 119.2919 | drift +20.21% | fluid 19.2615 | solid 100.0304
  Impulse FP iterations last/mean/max 11/11.11/15
Step  1500/2000   75.0% | t 75.000 | ETA 1m 17s | step 0.16s | KE 119.1073 | drift +20.02% | fluid 20.1036 | solid 99.0036
  Impulse FP iterations last/mean/max 11/11.10/15
Step  1600/2000   80.0% | t 80.000 | ETA 1m 2s | step 0.15s | KE 119.1171 | drift +20.03% | fluid 15.6471 | solid 103.4700
  Impulse FP iterations last/mean/max 11/11.09/15
Step  1700/2000   85.0% | t 85.000 | ETA 46s | step 0.16s | KE 119.2046 | drift +20.12% | fluid 18.3249 | solid 100.8797
  Impulse FP iterations last/mean/max 11/11.08/15
Step  1800/2000   90.0% | t 90.000 | ETA 31s | step 0.17s | KE 119.2437 | drift +20.16% | fluid 20.3540 | solid 98.8897
  Impulse FP iterations last/mean/max 11/11.07/15
Step  1900/2000   95.0% | t 95.000 | ETA 15s | step 0.17s | KE 119.1485 | drift +20.07% | fluid 17.1408 | solid 102.0078
  Impulse FP iterations last/mean/max 11/11.06/15
Solver finished successfully - good job!
Results saved successfully.

================== Run summary ==================
  Bodies:            2
  Triangles / nodes: 256 / 516
  Timesteps:         2000  (dt = 0.05)
  Simulated time:    0 -> 100
  First-step setup:  0.358 s
  Mean time/step:    0.1552 s  (excl. first step)
  Total wall time:   5m 10s
  Impulse FP iters last/mean/max: 10 / 11.054 / 15
  Approx impulse solves/step:     11.055
  Impulse start cache hits/direct: 1999 / 1
  Impulse global drift P/H:       2.216538e-8 / 1.927182e-2
  Impulse per-body max drift P/H: 3.572740e-8 / 2.524602e-2
  CPU cores:         256 available, 8 Rayon worker thread(s)
  Started:           2026-06-24 01:38:56
  Finished:          2026-06-24 01:44:07
  Output file:       /work/e643/e643/shared/multi_ellip/studies/two_body_paper_sweeps/runs/ellipsoid_1_0p8_0p6/ellipsoid_1_0p8_0p6_rho1_E4_sep3_run05_impulse_noproj/multiple_body_complete.dat
================================================
