
================ Simulation setup ================
  Run label:         /work/e643/e643/shared/multi_ellip/studies/departing_sphericity_sweep/runs/triaxial/heterogeneous_sphere/triaxial_heterogeneous_sphere_eps0p0003_rho1_E0p5_sep8_run08_impulse_noproj/
  Started:           2026-06-24 02:37:14
  Input file:        /work/e643/e643/shared/multi_ellip/studies/departing_sphericity_sweep/runs/triaxial/heterogeneous_sphere/triaxial_heterogeneous_sphere_eps0p0003_rho1_E0p5_sep8_run08_impulse_noproj/input.txt
  Output file:       /work/e643/e643/shared/multi_ellip/studies/departing_sphericity_sweep/runs/triaxial/heterogeneous_sphere/triaxial_heterogeneous_sphere_eps0p0003_rho1_E0p5_sep8_run08_impulse_noproj/multiple_body_complete.dat
  Bodies:            2
  Fluid density:     1
  Mesh:              ndiv 2 -> 256 triangles / 516 nodes
  Simulated time:    0 -> 100  (dt = 0.05, ~2000 steps)
  Output cadence:    every 1 step(s)
  Output rows:       ~2001
  Progress cadence:  every 100 step(s)
  CPU cores:         256 available, 8 Rayon worker thread(s)
  Strong coupling:   disabled
  Impulse scheme:    enabled
  Hamiltonian step:  disabled
  Hamiltonian midpt: disabled
  Variational step:  disabled
  Energy projection: disabled
  Projection particular metric: Euclidean
  Fluid KE gradient: disabled  (eps = 0.001, scale = 1, linear = 1, angular = 1)
  Fluid KE discrete gradient: disabled
  Impulse pair metric correction: disabled  (mode = pair discrete-gradient, cutoff = all pairs, inner/outer = 0/0, eps = 0.001, linear scale = 1, angular scale = 0)
  Impulse metric correction: disabled  (internal load constraint = disabled)
  Impulse variational defect probe: disabled
  Impulse quadratic pressure: disabled  (scale = 1)
  Added-mass stab:   disabled
  Exact BEM geometry: disabled
  Exact singular BEM: disabled
  Legacy singular SLP diagnostic: disabled
  Phi-dot blend:     0 (off)

  Solver guidance:
    - Strong coupling: use for stiff close-coupled runs; slower but more implicit.
    - Impulse scheme: use when impulse/momentum conservation or KE drift is the focus. Recommended.
    - Added-mass stab: use for higher mesh counts (ndiv > 3) to preserve stability - deprecated.
================================================
Solver starting - good luck!

Initial state:
  Body  1
    density:          1.000000
    shape axes ratio: (1.000000, 0.999700, 0.999400)
    initial KE ratio: 0.500000
    position:         (-4.000000, 0.000000, 0.000000)
    velocity:         (0.217070, -5.568051, 0.723256)
    angular velocity: (-6.258795, -0.008126, -0.553028)
    orientation:      (w=-0.677019, i=0.490644, j=-0.475236, k=-0.273977)
  Body  2
    density:          1.000000
    shape axes ratio: (1.000000, 1.000000, 1.000000)
    initial KE ratio: 0.500000
    position:         (4.000000, 0.000000, 0.000000)
    velocity:         (0.217102, -5.568873, 0.723363)
    angular velocity: (-1.283400, 4.171519, 4.519926)
    orientation:      (w=0.478684, i=-0.705058, j=0.302741, k=-0.426736)

Preparing first step: implicit scheme, no bootstrap passes required.
First step may take longer than later steps.

First step completed in 0.312 s.

Step   100/2000    5.0% | t 5.000 | ETA 2m 39s | step 0.09s | KE 271.6157 | drift +0.21% | fluid 72.6165 | solid 198.9992
  Impulse FP iterations last/mean/max 6/6.00/6
Step   200/2000   10.0% | t 10.000 | ETA 2m 32s | step 0.09s | KE 272.2119 | drift +0.43% | fluid 72.6163 | solid 199.5956
  Impulse FP iterations last/mean/max 6/6.00/6
Step   300/2000   15.0% | t 15.000 | ETA 2m 23s | step 0.08s | KE 272.8261 | drift +0.66% | fluid 72.6160 | solid 200.2101
  Impulse FP iterations last/mean/max 6/6.00/6
Step   400/2000   20.0% | t 20.000 | ETA 2m 15s | step 0.09s | KE 273.4583 | drift +0.89% | fluid 72.6154 | solid 200.8429
  Impulse FP iterations last/mean/max 6/6.00/6
Step   500/2000   25.0% | t 25.000 | ETA 2m 6s | step 0.08s | KE 274.1083 | drift +1.13% | fluid 72.6146 | solid 201.4937
  Impulse FP iterations last/mean/max 6/6.00/6
Step   600/2000   30.0% | t 30.000 | ETA 1m 57s | step 0.08s | KE 274.7761 | drift +1.38% | fluid 72.6136 | solid 202.1625
  Impulse FP iterations last/mean/max 6/6.00/6
Step   700/2000   35.0% | t 35.000 | ETA 1m 49s | step 0.07s | KE 275.4615 | drift +1.63% | fluid 72.6124 | solid 202.8491
  Impulse FP iterations last/mean/max 6/6.00/6
Step   800/2000   40.0% | t 40.000 | ETA 1m 39s | step 0.08s | KE 276.1645 | drift +1.89% | fluid 72.6111 | solid 203.5534
  Impulse FP iterations last/mean/max 6/6.00/6
Step   900/2000   45.0% | t 45.000 | ETA 1m 30s | step 0.07s | KE 276.8848 | drift +2.16% | fluid 72.6099 | solid 204.2749
  Impulse FP iterations last/mean/max 6/6.00/6
Step  1000/2000   50.0% | t 50.000 | ETA 1m 21s | step 0.08s | KE 277.6225 | drift +2.43% | fluid 72.6089 | solid 205.0137
  Impulse FP iterations last/mean/max 6/6.00/6
Step  1100/2000   55.0% | t 55.000 | ETA 1m 13s | step 0.08s | KE 278.3774 | drift +2.71% | fluid 72.6080 | solid 205.7693
  Impulse FP iterations last/mean/max 6/6.00/6
Step  1200/2000   60.0% | t 60.000 | ETA 1m 5s | step 0.09s | KE 279.1494 | drift +2.99% | fluid 72.6074 | solid 206.5420
  Impulse FP iterations last/mean/max 6/6.00/6
Step  1300/2000   65.0% | t 65.000 | ETA 57s | step 0.09s | KE 279.9383 | drift +3.28% | fluid 72.6071 | solid 207.3313
  Impulse FP iterations last/mean/max 6/6.00/6
Step  1400/2000   70.0% | t 70.000 | ETA 49s | step 0.08s | KE 280.7442 | drift +3.58% | fluid 72.6068 | solid 208.1374
  Impulse FP iterations last/mean/max 6/6.00/6
Step  1500/2000   75.0% | t 75.000 | ETA 41s | step 0.08s | KE 281.5669 | drift +3.88% | fluid 72.6067 | solid 208.9602
  Impulse FP iterations last/mean/max 6/6.00/6
Step  1600/2000   80.0% | t 80.000 | ETA 32s | step 0.08s | KE 282.4063 | drift +4.19% | fluid 72.6068 | solid 209.7996
  Impulse FP iterations last/mean/max 6/5.99/6
Step  1700/2000   85.0% | t 85.000 | ETA 24s | step 0.08s | KE 283.2624 | drift +4.51% | fluid 72.6069 | solid 210.6555
  Impulse FP iterations last/mean/max 6/5.99/6
Step  1800/2000   90.0% | t 90.000 | ETA 16s | step 0.07s | KE 284.1349 | drift +4.83% | fluid 72.6074 | solid 211.5276
  Impulse FP iterations last/mean/max 6/5.99/6
Step  1900/2000   95.0% | t 95.000 | ETA 8s | step 0.08s | KE 285.0239 | drift +5.16% | fluid 72.6083 | solid 212.4156
  Impulse FP iterations last/mean/max 6/5.99/6
Solver finished successfully - good job!
Results saved successfully.

================== Run summary ==================
  Bodies:            2
  Triangles / nodes: 256 / 516
  Timesteps:         2000  (dt = 0.05)
  Simulated time:    0 -> 100
  First-step setup:  0.312 s
  Mean time/step:    0.0813 s  (excl. first step)
  Total wall time:   2m 42s
  Impulse FP iters last/mean/max: 6 / 5.988 / 6
  Approx impulse solves/step:     5.989
  Impulse start cache hits/direct: 1999 / 1
  Impulse global drift P/H:       8.142124e-9 / 2.828710e-3
  Impulse per-body max drift P/H: 1.590894e-8 / 2.093102e-4
  CPU cores:         256 available, 8 Rayon worker thread(s)
  Started:           2026-06-24 02:37:14
  Finished:          2026-06-24 02:39:58
  Output file:       /work/e643/e643/shared/multi_ellip/studies/departing_sphericity_sweep/runs/triaxial/heterogeneous_sphere/triaxial_heterogeneous_sphere_eps0p0003_rho1_E0p5_sep8_run08_impulse_noproj/multiple_body_complete.dat
================================================
