
================ Simulation setup ================
  Run label:         /work/e643/e643/shared/multi_ellip/studies/two_body_paper_sweeps/runs/spheroid_1_0p7_0p7/spheroid_1_0p7_0p7_rho0p1_E11_sep11_run02_impulse_noproj/
  Started:           2026-06-22 20:00:40
  Input file:        /work/e643/e643/shared/multi_ellip/studies/two_body_paper_sweeps/runs/spheroid_1_0p7_0p7/spheroid_1_0p7_0p7_rho0p1_E11_sep11_run02_impulse_noproj/input.txt
  Output file:       /work/e643/e643/shared/multi_ellip/studies/two_body_paper_sweeps/runs/spheroid_1_0p7_0p7/spheroid_1_0p7_0p7_rho0p1_E11_sep11_run02_impulse_noproj/multiple_body_complete.dat
  Bodies:            2
  Fluid density:     1
  Mesh:              ndiv 2 -> 256 triangles / 516 nodes
  Simulated time:    0 -> 100  (dt = 0.05, ~2000 steps)
  Output cadence:    every 1 step(s)
  Output rows:       ~2001
  Progress cadence:  every 100 step(s)
  CPU cores:         256 available, 8 Rayon worker thread(s)
  Strong coupling:   disabled
  Impulse scheme:    enabled
  Hamiltonian step:  disabled
  Hamiltonian midpt: disabled
  Variational step:  disabled
  Energy projection: disabled
  Projection particular metric: Euclidean
  Fluid KE gradient: disabled  (eps = 0.001, scale = 1, linear = 1, angular = 1)
  Fluid KE discrete gradient: disabled
  Impulse pair metric correction: disabled  (mode = pair discrete-gradient, cutoff = all pairs, inner/outer = 0/0, eps = 0.001, linear scale = 1, angular scale = 0)
  Impulse metric correction: disabled  (internal load constraint = disabled)
  Impulse variational defect probe: disabled
  Impulse quadratic pressure: disabled  (scale = 1)
  Added-mass stab:   disabled
  Exact BEM geometry: disabled
  Exact singular BEM: disabled
  Legacy singular SLP diagnostic: disabled
  Phi-dot blend:     0 (off)

  Solver guidance:
    - Strong coupling: use for stiff close-coupled runs; slower but more implicit.
    - Impulse scheme: use when impulse/momentum conservation or KE drift is the focus. Recommended.
    - Added-mass stab: use for higher mesh counts (ndiv > 3) to preserve stability - deprecated.
================================================
Solver starting - good luck!

Initial state:
  Body  1
    density:          0.100000
    shape axes ratio: (1.000000, 0.700000, 0.700000)
    initial KE ratio: 11.000000
    position:         (-5.500000, 0.000000, 0.000000)
    velocity:         (-0.699322, 0.004659, -0.895727)
    angular velocity: (-5.364602, 2.901158, 1.510876)
    orientation:      (w=0.577350, i=0.577350, j=0.577350, k=0.000000)
  Body  2
    density:          0.100000
    shape axes ratio: (1.000000, 0.700000, 0.700000)
    initial KE ratio: 11.000000
    position:         (5.500000, 0.000000, 0.000000)
    velocity:         (-0.806784, 0.005375, -1.033370)
    angular velocity: (-0.363705, 5.965423, -1.939036)
    orientation:      (w=0.577350, i=-0.577350, j=0.000000, k=0.577350)

Preparing first step: implicit scheme, no bootstrap passes required.
First step may take longer than later steps.

First step completed in 0.297 s.

Step   100/2000    5.0% | t 5.000 | ETA 6m 37s | step 0.21s | KE 16.1475 | drift +1.71% | fluid 8.6260 | solid 7.5215
  Impulse FP iterations last/mean/max 16/15.34/17
Step   200/2000   10.0% | t 10.000 | ETA 6m 12s | step 0.22s | KE 16.1687 | drift +1.84% | fluid 8.5156 | solid 7.6530
  Impulse FP iterations last/mean/max 16/15.38/17
Step   300/2000   15.0% | t 15.000 | ETA 5m 51s | step 0.22s | KE 16.3672 | drift +3.09% | fluid 8.3442 | solid 8.0230
  Impulse FP iterations last/mean/max 16/15.38/17
Step   400/2000   20.0% | t 20.000 | ETA 5m 29s | step 0.21s | KE 16.9645 | drift +6.85% | fluid 8.7291 | solid 8.2354
  Impulse FP iterations last/mean/max 15/15.40/17
Step   500/2000   25.0% | t 25.000 | ETA 5m 7s | step 0.21s | KE 17.4720 | drift +10.05% | fluid 8.8021 | solid 8.6698
  Impulse FP iterations last/mean/max 16/15.41/17
Step   600/2000   30.0% | t 30.000 | ETA 4m 46s | step 0.22s | KE 17.6777 | drift +11.34% | fluid 8.8080 | solid 8.8697
  Impulse FP iterations last/mean/max 16/15.42/17
Step   700/2000   35.0% | t 35.000 | ETA 4m 26s | step 0.21s | KE 17.6390 | drift +11.10% | fluid 8.7213 | solid 8.9176
  Impulse FP iterations last/mean/max 16/15.46/18
Step   800/2000   40.0% | t 40.000 | ETA 4m 6s | step 0.21s | KE 17.8236 | drift +12.26% | fluid 8.7035 | solid 9.1201
  Impulse FP iterations last/mean/max 16/15.49/18
Step   900/2000   45.0% | t 45.000 | ETA 3m 45s | step 0.19s | KE 17.9782 | drift +13.24% | fluid 8.8023 | solid 9.1759
  Impulse FP iterations last/mean/max 16/15.51/18
Step  1000/2000   50.0% | t 50.000 | ETA 3m 25s | step 0.21s | KE 17.9507 | drift +13.06% | fluid 8.8885 | solid 9.0622
  Impulse FP iterations last/mean/max 16/15.53/18
Step  1100/2000   55.0% | t 55.000 | ETA 3m 4s | step 0.22s | KE 17.9020 | drift +12.76% | fluid 8.8173 | solid 9.0848
  Impulse FP iterations last/mean/max 16/15.55/18
Step  1200/2000   60.0% | t 60.000 | ETA 2m 44s | step 0.17s | KE 18.0231 | drift +13.52% | fluid 8.9604 | solid 9.0627
  Impulse FP iterations last/mean/max 14/15.56/18
Step  1300/2000   65.0% | t 65.000 | ETA 2m 23s | step 0.18s | KE 17.8924 | drift +12.70% | fluid 8.8955 | solid 8.9969
  Impulse FP iterations last/mean/max 15/15.56/18
Step  1400/2000   70.0% | t 70.000 | ETA 2m 3s | step 0.19s | KE 17.5725 | drift +10.68% | fluid 8.6197 | solid 8.9528
  Impulse FP iterations last/mean/max 15/15.57/18
Step  1500/2000   75.0% | t 75.000 | ETA 1m 42s | step 0.20s | KE 17.4878 | drift +10.15% | fluid 8.9783 | solid 8.5095
  Impulse FP iterations last/mean/max 15/15.57/18
Step  1600/2000   80.0% | t 80.000 | ETA 1m 22s | step 0.19s | KE 17.7117 | drift +11.56% | fluid 8.8186 | solid 8.8932
  Impulse FP iterations last/mean/max 15/15.57/18
Step  1700/2000   85.0% | t 85.000 | ETA 1m 1s | step 0.21s | KE 18.0213 | drift +13.51% | fluid 8.9736 | solid 9.0477
  Impulse FP iterations last/mean/max 16/15.57/18
Step  1800/2000   90.0% | t 90.000 | ETA 40s | step 0.18s | KE 18.0225 | drift +13.52% | fluid 8.9304 | solid 9.0922
  Impulse FP iterations last/mean/max 15/15.57/18
Step  1900/2000   95.0% | t 95.000 | ETA 20s | step 0.19s | KE 17.9075 | drift +12.79% | fluid 8.7642 | solid 9.1433
  Impulse FP iterations last/mean/max 16/15.56/18
Solver finished successfully - good job!
Results saved successfully.

================== Run summary ==================
  Bodies:            2
  Triangles / nodes: 256 / 516
  Timesteps:         2000  (dt = 0.05)
  Simulated time:    0 -> 100
  First-step setup:  0.297 s
  Mean time/step:    0.2036 s  (excl. first step)
  Total wall time:   6m 47s
  Impulse FP iters last/mean/max: 15 / 15.556 / 18
  Approx impulse solves/step:     15.556
  Impulse start cache hits/direct: 1999 / 1
  Impulse global drift P/H:       2.946155e-8 / 1.724789e-2
  Impulse per-body max drift P/H: 4.328447e-8 / 4.360363e-3
  CPU cores:         256 available, 8 Rayon worker thread(s)
  Started:           2026-06-22 20:00:40
  Finished:          2026-06-22 20:07:27
  Output file:       /work/e643/e643/shared/multi_ellip/studies/two_body_paper_sweeps/runs/spheroid_1_0p7_0p7/spheroid_1_0p7_0p7_rho0p1_E11_sep11_run02_impulse_noproj/multiple_body_complete.dat
================================================
