
================ Simulation setup ================
  Run label:         /work/e643/e643/shared/multi_ellip/studies/two_body_paper_sweeps/runs/spheroid_1_0p7_0p7/spheroid_1_0p7_0p7_rho0p3_E30_sep3_run02_impulse_noproj/
  Started:           2026-06-22 19:46:24
  Input file:        /work/e643/e643/shared/multi_ellip/studies/two_body_paper_sweeps/runs/spheroid_1_0p7_0p7/spheroid_1_0p7_0p7_rho0p3_E30_sep3_run02_impulse_noproj/input.txt
  Output file:       /work/e643/e643/shared/multi_ellip/studies/two_body_paper_sweeps/runs/spheroid_1_0p7_0p7/spheroid_1_0p7_0p7_rho0p3_E30_sep3_run02_impulse_noproj/multiple_body_complete.dat
  Bodies:            2
  Fluid density:     1
  Mesh:              ndiv 2 -> 256 triangles / 516 nodes
  Simulated time:    0 -> 100  (dt = 0.05, ~2000 steps)
  Output cadence:    every 1 step(s)
  Output rows:       ~2001
  Progress cadence:  every 100 step(s)
  CPU cores:         256 available, 8 Rayon worker thread(s)
  Strong coupling:   disabled
  Impulse scheme:    enabled
  Hamiltonian step:  disabled
  Hamiltonian midpt: disabled
  Variational step:  disabled
  Energy projection: disabled
  Projection particular metric: Euclidean
  Fluid KE gradient: disabled  (eps = 0.001, scale = 1, linear = 1, angular = 1)
  Fluid KE discrete gradient: disabled
  Impulse pair metric correction: disabled  (mode = pair discrete-gradient, cutoff = all pairs, inner/outer = 0/0, eps = 0.001, linear scale = 1, angular scale = 0)
  Impulse metric correction: disabled  (internal load constraint = disabled)
  Impulse variational defect probe: disabled
  Impulse quadratic pressure: disabled  (scale = 1)
  Added-mass stab:   disabled
  Exact BEM geometry: disabled
  Exact singular BEM: disabled
  Legacy singular SLP diagnostic: disabled
  Phi-dot blend:     0 (off)

  Solver guidance:
    - Strong coupling: use for stiff close-coupled runs; slower but more implicit.
    - Impulse scheme: use when impulse/momentum conservation or KE drift is the focus. Recommended.
    - Added-mass stab: use for higher mesh counts (ndiv > 3) to preserve stability - deprecated.
================================================
Solver starting - good luck!

Initial state:
  Body  1
    density:          0.300000
    shape axes ratio: (1.000000, 0.700000, 0.700000)
    initial KE ratio: 30.000000
    position:         (-1.500000, 0.000000, 0.000000)
    velocity:         (-0.364255, -0.014733, -0.701621)
    angular velocity: (1.027329, -0.463646, 6.181266)
    orientation:      (w=0.577350, i=0.577350, j=0.577350, k=0.000000)
  Body  2
    density:          0.300000
    shape axes ratio: (1.000000, 0.700000, 0.700000)
    initial KE ratio: 30.000000
    position:         (1.500000, 0.000000, 0.000000)
    velocity:         (-0.327486, -0.013245, -0.630799)
    angular velocity: (-4.791948, -3.672855, -1.739479)
    orientation:      (w=0.577350, i=-0.577350, j=0.000000, k=0.577350)

Preparing first step: implicit scheme, no bootstrap passes required.
First step may take longer than later steps.

First step completed in 0.377 s.

Step   100/2000    5.0% | t 5.000 | ETA 5m 38s | step 0.18s | KE 27.0942 | drift -2.21% | fluid 5.6004 | solid 21.4937
  Impulse FP iterations last/mean/max 13/12.99/14
Step   200/2000   10.0% | t 10.000 | ETA 5m 16s | step 0.17s | KE 26.9246 | drift -2.83% | fluid 5.4966 | solid 21.4280
  Impulse FP iterations last/mean/max 13/12.91/14
Step   300/2000   15.0% | t 15.000 | ETA 4m 51s | step 0.15s | KE 26.9714 | drift -2.66% | fluid 5.4303 | solid 21.5411
  Impulse FP iterations last/mean/max 12/12.76/14
Step   400/2000   20.0% | t 20.000 | ETA 4m 31s | step 0.18s | KE 27.0071 | drift -2.53% | fluid 5.4106 | solid 21.5964
  Impulse FP iterations last/mean/max 12/12.62/14
Step   500/2000   25.0% | t 25.000 | ETA 4m 17s | step 0.18s | KE 27.0211 | drift -2.48% | fluid 5.4260 | solid 21.5951
  Impulse FP iterations last/mean/max 13/12.53/14
Step   600/2000   30.0% | t 30.000 | ETA 4m 0s | step 0.14s | KE 27.1017 | drift -2.19% | fluid 5.4424 | solid 21.6593
  Impulse FP iterations last/mean/max 11/12.45/14
Step   700/2000   35.0% | t 35.000 | ETA 3m 44s | step 0.17s | KE 27.1875 | drift -1.88% | fluid 5.4778 | solid 21.7097
  Impulse FP iterations last/mean/max 12/12.40/14
Step   800/2000   40.0% | t 40.000 | ETA 3m 27s | step 0.15s | KE 27.2733 | drift -1.57% | fluid 5.5022 | solid 21.7711
  Impulse FP iterations last/mean/max 11/12.35/14
Step   900/2000   45.0% | t 45.000 | ETA 3m 9s | step 0.16s | KE 27.3542 | drift -1.28% | fluid 5.5331 | solid 21.8212
  Impulse FP iterations last/mean/max 11/12.28/14
Step  1000/2000   50.0% | t 50.000 | ETA 2m 52s | step 0.15s | KE 27.4160 | drift -1.05% | fluid 5.5458 | solid 21.8702
  Impulse FP iterations last/mean/max 11/12.24/14
Step  1100/2000   55.0% | t 55.000 | ETA 2m 34s | step 0.18s | KE 27.4518 | drift -0.92% | fluid 5.5633 | solid 21.8885
  Impulse FP iterations last/mean/max 12/12.21/14
Step  1200/2000   60.0% | t 60.000 | ETA 2m 17s | step 0.17s | KE 27.4663 | drift -0.87% | fluid 5.5643 | solid 21.9020
  Impulse FP iterations last/mean/max 11/12.16/14
Step  1300/2000   65.0% | t 65.000 | ETA 1m 59s | step 0.17s | KE 27.4652 | drift -0.88% | fluid 5.5732 | solid 21.8919
  Impulse FP iterations last/mean/max 12/12.13/14
Step  1400/2000   70.0% | t 70.000 | ETA 1m 42s | step 0.15s | KE 27.4537 | drift -0.92% | fluid 5.5697 | solid 21.8839
  Impulse FP iterations last/mean/max 11/12.09/14
Step  1500/2000   75.0% | t 75.000 | ETA 1m 25s | step 0.17s | KE 27.4351 | drift -0.98% | fluid 5.5724 | solid 21.8627
  Impulse FP iterations last/mean/max 12/12.07/14
Step  1600/2000   80.0% | t 80.000 | ETA 1m 7s | step 0.14s | KE 27.4136 | drift -1.06% | fluid 5.5652 | solid 21.8484
  Impulse FP iterations last/mean/max 12/12.04/14
Step  1700/2000   85.0% | t 85.000 | ETA 50s | step 0.13s | KE 27.3942 | drift -1.13% | fluid 5.5652 | solid 21.8290
  Impulse FP iterations last/mean/max 12/12.01/14
Step  1800/2000   90.0% | t 90.000 | ETA 33s | step 0.14s | KE 27.3780 | drift -1.19% | fluid 5.5611 | solid 21.8169
  Impulse FP iterations last/mean/max 11/11.99/14
Step  1900/2000   95.0% | t 95.000 | ETA 16s | step 0.13s | KE 27.3647 | drift -1.24% | fluid 5.5611 | solid 21.8036
  Impulse FP iterations last/mean/max 12/11.97/14
Solver finished successfully - good job!
Results saved successfully.

================== Run summary ==================
  Bodies:            2
  Triangles / nodes: 256 / 516
  Timesteps:         2000  (dt = 0.05)
  Simulated time:    0 -> 100
  First-step setup:  0.377 s
  Mean time/step:    0.1617 s  (excl. first step)
  Total wall time:   5m 23s
  Impulse FP iters last/mean/max: 12 / 11.953 / 14
  Approx impulse solves/step:     11.954
  Impulse start cache hits/direct: 1999 / 1
  Impulse global drift P/H:       7.329430e-8 / 2.336318e-2
  Impulse per-body max drift P/H: 9.437193e-8 / 8.094021e-3
  CPU cores:         256 available, 8 Rayon worker thread(s)
  Started:           2026-06-22 19:46:24
  Finished:          2026-06-22 19:51:51
  Output file:       /work/e643/e643/shared/multi_ellip/studies/two_body_paper_sweeps/runs/spheroid_1_0p7_0p7/spheroid_1_0p7_0p7_rho0p3_E30_sep3_run02_impulse_noproj/multiple_body_complete.dat
================================================
