
================ Simulation setup ================
  Run label:         /work/e643/e643/shared/multi_ellip/studies/two_body_paper_sweeps/runs/ellipsoid_1_0p8_0p6/ellipsoid_1_0p8_0p6_rho4_E1p5_sep5_run04_impulse_noproj/
  Started:           2026-06-24 01:29:07
  Input file:        /work/e643/e643/shared/multi_ellip/studies/two_body_paper_sweeps/runs/ellipsoid_1_0p8_0p6/ellipsoid_1_0p8_0p6_rho4_E1p5_sep5_run04_impulse_noproj/input.txt
  Output file:       /work/e643/e643/shared/multi_ellip/studies/two_body_paper_sweeps/runs/ellipsoid_1_0p8_0p6/ellipsoid_1_0p8_0p6_rho4_E1p5_sep5_run04_impulse_noproj/multiple_body_complete.dat
  Bodies:            2
  Fluid density:     1
  Mesh:              ndiv 2 -> 256 triangles / 516 nodes
  Simulated time:    0 -> 100  (dt = 0.05, ~2000 steps)
  Output cadence:    every 1 step(s)
  Output rows:       ~2001
  Progress cadence:  every 100 step(s)
  CPU cores:         256 available, 8 Rayon worker thread(s)
  Strong coupling:   disabled
  Impulse scheme:    enabled
  Hamiltonian step:  disabled
  Hamiltonian midpt: disabled
  Variational step:  disabled
  Energy projection: disabled
  Projection particular metric: Euclidean
  Fluid KE gradient: disabled  (eps = 0.001, scale = 1, linear = 1, angular = 1)
  Fluid KE discrete gradient: disabled
  Impulse pair metric correction: disabled  (mode = pair discrete-gradient, cutoff = all pairs, inner/outer = 0/0, eps = 0.001, linear scale = 1, angular scale = 0)
  Impulse metric correction: disabled  (internal load constraint = disabled)
  Impulse variational defect probe: disabled
  Impulse quadratic pressure: disabled  (scale = 1)
  Added-mass stab:   disabled
  Exact BEM geometry: disabled
  Exact singular BEM: disabled
  Legacy singular SLP diagnostic: disabled
  Phi-dot blend:     0 (off)

  Solver guidance:
    - Strong coupling: use for stiff close-coupled runs; slower but more implicit.
    - Impulse scheme: use when impulse/momentum conservation or KE drift is the focus. Recommended.
    - Added-mass stab: use for higher mesh counts (ndiv > 3) to preserve stability - deprecated.
================================================
Solver starting - good luck!

Initial state:
  Body  1
    density:          4.000000
    shape axes ratio: (1.000000, 0.800000, 0.600000)
    initial KE ratio: 1.500000
    position:         (-2.500000, 0.000000, 0.000000)
    velocity:         (-1.483116, 2.366698, -1.978937)
    angular velocity: (3.111397, 4.086307, 3.619353)
    orientation:      (w=0.490815, i=-0.524467, j=-0.466710, k=-0.515963)
  Body  2
    density:          4.000000
    shape axes ratio: (1.000000, 0.800000, 0.600000)
    initial KE ratio: 1.500000
    position:         (2.500000, 0.000000, 0.000000)
    velocity:         (-1.470506, 2.346575, -1.962112)
    angular velocity: (-1.723362, -5.940944, -1.101646)
    orientation:      (w=-0.344731, i=-0.638774, j=0.670863, k=-0.151895)

Preparing first step: implicit scheme, no bootstrap passes required.
First step may take longer than later steps.

First step completed in 0.250 s.

Step   100/2000    5.0% | t 5.000 | ETA 3m 13s | step 0.10s | KE 525.0805 | drift +0.19% | fluid 38.8509 | solid 486.2296
  Impulse FP iterations last/mean/max 9/8.83/9
Step   200/2000   10.0% | t 10.000 | ETA 3m 15s | step 0.10s | KE 527.8802 | drift +0.73% | fluid 36.3892 | solid 491.4910
  Impulse FP iterations last/mean/max 8/8.75/9
Step   300/2000   15.0% | t 15.000 | ETA 3m 12s | step 0.13s | KE 529.6509 | drift +1.06% | fluid 42.6268 | solid 487.0240
  Impulse FP iterations last/mean/max 9/8.74/9
Step   400/2000   20.0% | t 20.000 | ETA 3m 5s | step 0.12s | KE 530.6928 | drift +1.26% | fluid 32.4624 | solid 498.2304
  Impulse FP iterations last/mean/max 9/8.71/9
Step   500/2000   25.0% | t 25.000 | ETA 2m 55s | step 0.13s | KE 530.3875 | drift +1.20% | fluid 44.3071 | solid 486.0804
  Impulse FP iterations last/mean/max 9/8.68/9
Step   600/2000   30.0% | t 30.000 | ETA 2m 45s | step 0.13s | KE 530.1111 | drift +1.15% | fluid 38.3257 | solid 491.7854
  Impulse FP iterations last/mean/max 9/8.67/9
Step   700/2000   35.0% | t 35.000 | ETA 2m 34s | step 0.13s | KE 530.0654 | drift +1.14% | fluid 34.7845 | solid 495.2810
  Impulse FP iterations last/mean/max 9/8.65/9
Step   800/2000   40.0% | t 40.000 | ETA 2m 23s | step 0.12s | KE 529.6787 | drift +1.07% | fluid 34.7849 | solid 494.8938
  Impulse FP iterations last/mean/max 9/8.63/9
Step   900/2000   45.0% | t 45.000 | ETA 2m 11s | step 0.12s | KE 529.1569 | drift +0.97% | fluid 36.2997 | solid 492.8572
  Impulse FP iterations last/mean/max 9/8.62/9
Step  1000/2000   50.0% | t 50.000 | ETA 1m 59s | step 0.13s | KE 529.0257 | drift +0.94% | fluid 34.4253 | solid 494.6004
  Impulse FP iterations last/mean/max 9/8.62/9
Step  1100/2000   55.0% | t 55.000 | ETA 1m 48s | step 0.12s | KE 529.2221 | drift +0.98% | fluid 29.4780 | solid 499.7441
  Impulse FP iterations last/mean/max 8/8.60/9
Step  1200/2000   60.0% | t 60.000 | ETA 1m 36s | step 0.13s | KE 529.0137 | drift +0.94% | fluid 30.4531 | solid 498.5606
  Impulse FP iterations last/mean/max 8/8.59/9
Step  1300/2000   65.0% | t 65.000 | ETA 1m 24s | step 0.12s | KE 528.7270 | drift +0.89% | fluid 37.0630 | solid 491.6640
  Impulse FP iterations last/mean/max 9/8.59/9
Step  1400/2000   70.0% | t 70.000 | ETA 1m 12s | step 0.11s | KE 529.1264 | drift +0.96% | fluid 28.4684 | solid 500.6580
  Impulse FP iterations last/mean/max 8/8.58/9
Step  1500/2000   75.0% | t 75.000 | ETA 1m 0s | step 0.11s | KE 529.2155 | drift +0.98% | fluid 32.3758 | solid 496.8397
  Impulse FP iterations last/mean/max 8/8.58/9
Step  1600/2000   80.0% | t 80.000 | ETA 48s | step 0.12s | KE 529.0355 | drift +0.95% | fluid 33.0961 | solid 495.9394
  Impulse FP iterations last/mean/max 9/8.58/9
Step  1700/2000   85.0% | t 85.000 | ETA 36s | step 0.11s | KE 529.0961 | drift +0.96% | fluid 36.5883 | solid 492.5078
  Impulse FP iterations last/mean/max 8/8.58/9
Step  1800/2000   90.0% | t 90.000 | ETA 24s | step 0.12s | KE 529.3767 | drift +1.01% | fluid 31.6513 | solid 497.7255
  Impulse FP iterations last/mean/max 8/8.58/9
Step  1900/2000   95.0% | t 95.000 | ETA 12s | step 0.12s | KE 529.3682 | drift +1.01% | fluid 37.5597 | solid 491.8086
  Impulse FP iterations last/mean/max 9/8.58/9
Solver finished successfully - good job!
Results saved successfully.

================== Run summary ==================
  Bodies:            2
  Triangles / nodes: 256 / 516
  Timesteps:         2000  (dt = 0.05)
  Simulated time:    0 -> 100
  First-step setup:  0.250 s
  Mean time/step:    0.1207 s  (excl. first step)
  Total wall time:   4m 1s
  Impulse FP iters last/mean/max: 9 / 8.575 / 9
  Approx impulse solves/step:     8.576
  Impulse start cache hits/direct: 1999 / 1
  Impulse global drift P/H:       8.990455e-9 / 4.630918e-2
  Impulse per-body max drift P/H: 1.120719e-8 / 6.587289e-3
  CPU cores:         256 available, 8 Rayon worker thread(s)
  Started:           2026-06-24 01:29:07
  Finished:          2026-06-24 01:33:09
  Output file:       /work/e643/e643/shared/multi_ellip/studies/two_body_paper_sweeps/runs/ellipsoid_1_0p8_0p6/ellipsoid_1_0p8_0p6_rho4_E1p5_sep5_run04_impulse_noproj/multiple_body_complete.dat
================================================
