
================ Simulation setup ================
  Run label:         /work/e643/e643/shared/multi_ellip/studies/departing_sphericity_sweep/runs/spheroid_oblate/homogeneous/spheroid_oblate_homogeneous_eps0p01_rho1_E0p5_sep8_run08_impulse_noproj/
  Started:           2026-06-24 02:26:26
  Input file:        /work/e643/e643/shared/multi_ellip/studies/departing_sphericity_sweep/runs/spheroid_oblate/homogeneous/spheroid_oblate_homogeneous_eps0p01_rho1_E0p5_sep8_run08_impulse_noproj/input.txt
  Output file:       /work/e643/e643/shared/multi_ellip/studies/departing_sphericity_sweep/runs/spheroid_oblate/homogeneous/spheroid_oblate_homogeneous_eps0p01_rho1_E0p5_sep8_run08_impulse_noproj/multiple_body_complete.dat
  Bodies:            2
  Fluid density:     1
  Mesh:              ndiv 2 -> 256 triangles / 516 nodes
  Simulated time:    0 -> 100  (dt = 0.05, ~2000 steps)
  Output cadence:    every 1 step(s)
  Output rows:       ~2001
  Progress cadence:  every 100 step(s)
  CPU cores:         256 available, 8 Rayon worker thread(s)
  Strong coupling:   disabled
  Impulse scheme:    enabled
  Hamiltonian step:  disabled
  Hamiltonian midpt: disabled
  Variational step:  disabled
  Energy projection: disabled
  Projection particular metric: Euclidean
  Fluid KE gradient: disabled  (eps = 0.001, scale = 1, linear = 1, angular = 1)
  Fluid KE discrete gradient: disabled
  Impulse pair metric correction: disabled  (mode = pair discrete-gradient, cutoff = all pairs, inner/outer = 0/0, eps = 0.001, linear scale = 1, angular scale = 0)
  Impulse metric correction: disabled  (internal load constraint = disabled)
  Impulse variational defect probe: disabled
  Impulse quadratic pressure: disabled  (scale = 1)
  Added-mass stab:   disabled
  Exact BEM geometry: disabled
  Exact singular BEM: disabled
  Legacy singular SLP diagnostic: disabled
  Phi-dot blend:     0 (off)

  Solver guidance:
    - Strong coupling: use for stiff close-coupled runs; slower but more implicit.
    - Impulse scheme: use when impulse/momentum conservation or KE drift is the focus. Recommended.
    - Added-mass stab: use for higher mesh counts (ndiv > 3) to preserve stability - deprecated.
================================================
Solver starting - good luck!

Initial state:
  Body  1
    density:          1.000000
    shape axes ratio: (1.000000, 1.000000, 0.970590)
    initial KE ratio: 0.500000
    position:         (-4.000000, 0.000000, 0.000000)
    velocity:         (1.917403, -2.402828, 4.696214)
    angular velocity: (3.612807, -4.135574, 3.053370)
    orientation:      (w=0.180536, i=0.711760, j=0.011620, k=-0.678727)
  Body  2
    density:          1.000000
    shape axes ratio: (1.000000, 1.000000, 0.970590)
    initial KE ratio: 0.500000
    position:         (4.000000, 0.000000, 0.000000)
    velocity:         (1.915271, -2.400157, 4.690993)
    angular velocity: (-5.504604, -1.677717, -2.522502)
    orientation:      (w=-0.091287, i=0.505915, j=0.829830, k=0.217024)

Preparing first step: implicit scheme, no bootstrap passes required.
First step may take longer than later steps.

First step completed in 0.301 s.

Step   100/2000    5.0% | t 5.000 | ETA 3m 20s | step 0.10s | KE 267.3494 | drift -1.08% | fluid 72.4159 | solid 194.9334
  Impulse FP iterations last/mean/max 8/7.79/8
Step   200/2000   10.0% | t 10.000 | ETA 3m 8s | step 0.09s | KE 270.2810 | drift +0.00% | fluid 72.2604 | solid 198.0206
  Impulse FP iterations last/mean/max 7/7.80/8
Step   300/2000   15.0% | t 15.000 | ETA 2m 56s | step 0.10s | KE 280.1735 | drift +3.67% | fluid 72.6155 | solid 207.5580
  Impulse FP iterations last/mean/max 8/7.79/8
Step   400/2000   20.0% | t 20.000 | ETA 2m 41s | step 0.08s | KE 297.0107 | drift +9.90% | fluid 72.3926 | solid 224.6180
  Impulse FP iterations last/mean/max 7/7.78/8
Step   500/2000   25.0% | t 25.000 | ETA 2m 27s | step 0.07s | KE 319.7640 | drift +18.31% | fluid 72.3033 | solid 247.4608
  Impulse FP iterations last/mean/max 7/7.76/8
Step   600/2000   30.0% | t 30.000 | ETA 2m 18s | step 0.10s | KE 347.3962 | drift +28.54% | fluid 72.3820 | solid 275.0142
  Impulse FP iterations last/mean/max 8/7.74/8
Step   700/2000   35.0% | t 35.000 | ETA 2m 9s | step 0.10s | KE 378.5760 | drift +40.07% | fluid 72.6893 | solid 305.8866
  Impulse FP iterations last/mean/max 8/7.72/8
Step   800/2000   40.0% | t 40.000 | ETA 2m 0s | step 0.11s | KE 412.4934 | drift +52.62% | fluid 72.6962 | solid 339.7972
  Impulse FP iterations last/mean/max 8/7.72/8
Step   900/2000   45.0% | t 45.000 | ETA 1m 50s | step 0.11s | KE 447.5745 | drift +65.60% | fluid 72.6845 | solid 374.8900
  Impulse FP iterations last/mean/max 8/7.72/8
Step  1000/2000   50.0% | t 50.000 | ETA 1m 41s | step 0.10s | KE 483.0807 | drift +78.74% | fluid 72.3973 | solid 410.6834
  Impulse FP iterations last/mean/max 7/7.72/8
Step  1100/2000   55.0% | t 55.000 | ETA 1m 31s | step 0.10s | KE 517.1836 | drift +91.36% | fluid 72.7409 | solid 444.4426
  Impulse FP iterations last/mean/max 8/7.72/8
Step  1200/2000   60.0% | t 60.000 | ETA 1m 21s | step 0.11s | KE 549.3414 | drift +103.26% | fluid 72.7687 | solid 476.5727
  Impulse FP iterations last/mean/max 8/7.72/8
Step  1300/2000   65.0% | t 65.000 | ETA 1m 11s | step 0.09s | KE 578.9716 | drift +114.22% | fluid 72.4847 | solid 506.4869
  Impulse FP iterations last/mean/max 7/7.73/8
Step  1400/2000   70.0% | t 70.000 | ETA 1m 1s | step 0.11s | KE 604.6404 | drift +123.72% | fluid 72.7741 | solid 531.8663
  Impulse FP iterations last/mean/max 8/7.73/8
Step  1500/2000   75.0% | t 75.000 | ETA 51s | step 0.11s | KE 626.9448 | drift +131.97% | fluid 73.1937 | solid 553.7511
  Impulse FP iterations last/mean/max 8/7.72/8
Step  1600/2000   80.0% | t 80.000 | ETA 40s | step 0.10s | KE 646.1790 | drift +139.09% | fluid 72.5615 | solid 573.6175
  Impulse FP iterations last/mean/max 7/7.71/8
Step  1700/2000   85.0% | t 85.000 | ETA 30s | step 0.10s | KE 661.0489 | drift +144.59% | fluid 73.3958 | solid 587.6531
  Impulse FP iterations last/mean/max 8/7.70/8
Step  1800/2000   90.0% | t 90.000 | ETA 20s | step 0.10s | KE 673.7104 | drift +149.28% | fluid 72.9766 | solid 600.7339
  Impulse FP iterations last/mean/max 8/7.69/8
Step  1900/2000   95.0% | t 95.000 | ETA 10s | step 0.08s | KE 683.4432 | drift +152.88% | fluid 73.4266 | solid 610.0166
  Impulse FP iterations last/mean/max 7/7.68/8
Solver finished successfully - good job!
Results saved successfully.

================== Run summary ==================
  Bodies:            2
  Triangles / nodes: 256 / 516
  Timesteps:         2000  (dt = 0.05)
  Simulated time:    0 -> 100
  First-step setup:  0.301 s
  Mean time/step:    0.1011 s  (excl. first step)
  Total wall time:   3m 22s
  Impulse FP iters last/mean/max: 7 / 7.658 / 8
  Approx impulse solves/step:     7.659
  Impulse start cache hits/direct: 1999 / 1
  Impulse global drift P/H:       2.407523e-8 / 1.191587e-1
  Impulse per-body max drift P/H: 5.315964e-8 / 1.176942e-2
  CPU cores:         256 available, 8 Rayon worker thread(s)
  Started:           2026-06-24 02:26:26
  Finished:          2026-06-24 02:29:49
  Output file:       /work/e643/e643/shared/multi_ellip/studies/departing_sphericity_sweep/runs/spheroid_oblate/homogeneous/spheroid_oblate_homogeneous_eps0p01_rho1_E0p5_sep8_run08_impulse_noproj/multiple_body_complete.dat
================================================
