
================ Simulation setup ================
  Run label:         /work/e643/e643/shared/multi_ellip/studies/two_body_paper_sweeps/runs/ellipsoid_1_0p8_0p6/ellipsoid_1_0p8_0p6_rho10_E0p2_sep3_run02_impulse_noproj/
  Started:           2026-06-22 19:23:16
  Input file:        /work/e643/e643/shared/multi_ellip/studies/two_body_paper_sweeps/runs/ellipsoid_1_0p8_0p6/ellipsoid_1_0p8_0p6_rho10_E0p2_sep3_run02_impulse_noproj/input.txt
  Output file:       /work/e643/e643/shared/multi_ellip/studies/two_body_paper_sweeps/runs/ellipsoid_1_0p8_0p6/ellipsoid_1_0p8_0p6_rho10_E0p2_sep3_run02_impulse_noproj/multiple_body_complete.dat
  Bodies:            2
  Fluid density:     1
  Mesh:              ndiv 2 -> 256 triangles / 516 nodes
  Simulated time:    0 -> 100  (dt = 0.05, ~2000 steps)
  Output cadence:    every 1 step(s)
  Output rows:       ~2001
  Progress cadence:  every 100 step(s)
  CPU cores:         256 available, 8 Rayon worker thread(s)
  Strong coupling:   disabled
  Impulse scheme:    enabled
  Hamiltonian step:  disabled
  Hamiltonian midpt: disabled
  Variational step:  disabled
  Energy projection: disabled
  Projection particular metric: Euclidean
  Fluid KE gradient: disabled  (eps = 0.001, scale = 1, linear = 1, angular = 1)
  Fluid KE discrete gradient: disabled
  Impulse pair metric correction: disabled  (mode = pair discrete-gradient, cutoff = all pairs, inner/outer = 0/0, eps = 0.001, linear scale = 1, angular scale = 0)
  Impulse metric correction: disabled  (internal load constraint = disabled)
  Impulse variational defect probe: disabled
  Impulse quadratic pressure: disabled  (scale = 1)
  Added-mass stab:   disabled
  Exact BEM geometry: disabled
  Exact singular BEM: disabled
  Legacy singular SLP diagnostic: disabled
  Phi-dot blend:     0 (off)

  Solver guidance:
    - Strong coupling: use for stiff close-coupled runs; slower but more implicit.
    - Impulse scheme: use when impulse/momentum conservation or KE drift is the focus. Recommended.
    - Added-mass stab: use for higher mesh counts (ndiv > 3) to preserve stability - deprecated.
================================================
Solver starting - good luck!

Initial state:
  Body  1
    density:          10.000000
    shape axes ratio: (1.000000, 0.800000, 0.600000)
    initial KE ratio: 0.200000
    position:         (-1.500000, 0.000000, 0.000000)
    velocity:         (-6.297742, -4.171190, -3.865320)
    angular velocity: (-5.665339, 0.474505, -2.675294)
    orientation:      (w=0.577350, i=0.577350, j=0.577350, k=0.000000)
  Body  2
    density:          10.000000
    shape axes ratio: (1.000000, 0.800000, 0.600000)
    initial KE ratio: 0.200000
    position:         (1.500000, 0.000000, 0.000000)
    velocity:         (-7.103462, -4.704843, -4.359841)
    angular velocity: (1.326774, -5.162033, 3.327388)
    orientation:      (w=0.577350, i=-0.577350, j=0.000000, k=0.577350)

Preparing first step: implicit scheme, no bootstrap passes required.
First step may take longer than later steps.

First step completed in 11.949 s.

Step   100/2000    5.0% | t 5.000 | ETA 3m 42s | step 0.10s | KE 4503.7645 | drift +4.56% | fluid 191.6337 | solid 4312.1308
  Impulse FP iterations last/mean/max 7/8.10/30
Step   200/2000   10.0% | t 10.000 | ETA 3m 14s | step 0.10s | KE 4595.8338 | drift +6.69% | fluid 231.1098 | solid 4364.7239
  Impulse FP iterations last/mean/max 7/7.72/30
Step   300/2000   15.0% | t 15.000 | ETA 2m 58s | step 0.10s | KE 4597.3971 | drift +6.73% | fluid 250.4076 | solid 4346.9895
  Impulse FP iterations last/mean/max 8/7.61/30
Step   400/2000   20.0% | t 20.000 | ETA 2m 45s | step 0.10s | KE 4599.8588 | drift +6.79% | fluid 202.0199 | solid 4397.8390
  Impulse FP iterations last/mean/max 7/7.56/30
Step   500/2000   25.0% | t 25.000 | ETA 2m 34s | step 0.09s | KE 4600.6964 | drift +6.81% | fluid 174.6570 | solid 4426.0394
  Impulse FP iterations last/mean/max 7/7.53/30
Step   600/2000   30.0% | t 30.000 | ETA 2m 23s | step 0.10s | KE 4599.5038 | drift +6.78% | fluid 184.4145 | solid 4415.0894
  Impulse FP iterations last/mean/max 7/7.49/30
Step   700/2000   35.0% | t 35.000 | ETA 2m 12s | step 0.11s | KE 4598.1121 | drift +6.75% | fluid 206.9429 | solid 4391.1692
  Impulse FP iterations last/mean/max 8/7.49/30
Step   800/2000   40.0% | t 40.000 | ETA 2m 1s | step 0.09s | KE 4599.7775 | drift +6.79% | fluid 174.0353 | solid 4425.7421
  Impulse FP iterations last/mean/max 7/7.47/30
Step   900/2000   45.0% | t 45.000 | ETA 1m 51s | step 0.10s | KE 4600.3747 | drift +6.80% | fluid 169.9157 | solid 4430.4589
  Impulse FP iterations last/mean/max 7/7.47/30
Step  1000/2000   50.0% | t 50.000 | ETA 1m 40s | step 0.10s | KE 4599.5615 | drift +6.78% | fluid 195.6151 | solid 4403.9464
  Impulse FP iterations last/mean/max 7/7.46/30
Step  1100/2000   55.0% | t 55.000 | ETA 1m 30s | step 0.10s | KE 4598.2879 | drift +6.75% | fluid 218.3497 | solid 4379.9382
  Impulse FP iterations last/mean/max 7/7.46/30
Step  1200/2000   60.0% | t 60.000 | ETA 1m 20s | step 0.11s | KE 4598.5666 | drift +6.76% | fluid 226.4870 | solid 4372.0796
  Impulse FP iterations last/mean/max 8/7.45/30
Step  1300/2000   65.0% | t 65.000 | ETA 1m 10s | step 0.10s | KE 4600.8894 | drift +6.81% | fluid 191.0483 | solid 4409.8411
  Impulse FP iterations last/mean/max 7/7.44/30
Step  1400/2000   70.0% | t 70.000 | ETA 1m 0s | step 0.10s | KE 4597.0433 | drift +6.72% | fluid 255.2084 | solid 4341.8350
  Impulse FP iterations last/mean/max 8/7.44/30
Step  1500/2000   75.0% | t 75.000 | ETA 50s | step 0.10s | KE 4596.4709 | drift +6.71% | fluid 270.3301 | solid 4326.1407
  Impulse FP iterations last/mean/max 7/7.43/30
Step  1600/2000   80.0% | t 80.000 | ETA 40s | step 0.10s | KE 4600.7167 | drift +6.81% | fluid 201.8499 | solid 4398.8668
  Impulse FP iterations last/mean/max 8/7.43/30
Step  1700/2000   85.0% | t 85.000 | ETA 30s | step 0.09s | KE 4598.7155 | drift +6.76% | fluid 228.2203 | solid 4370.4952
  Impulse FP iterations last/mean/max 7/7.42/30
Step  1800/2000   90.0% | t 90.000 | ETA 20s | step 0.12s | KE 4597.4622 | drift +6.73% | fluid 236.5694 | solid 4360.8928
  Impulse FP iterations last/mean/max 8/7.43/30
Step  1900/2000   95.0% | t 95.000 | ETA 9s | step 0.07s | KE 4599.7701 | drift +6.79% | fluid 193.0483 | solid 4406.7218
  Impulse FP iterations last/mean/max 7/7.43/30
Solver finished successfully - good job!
Results saved successfully.

================== Run summary ==================
  Bodies:            2
  Triangles / nodes: 256 / 516
  Timesteps:         2000  (dt = 0.05)
  Simulated time:    0 -> 100
  First-step setup:  11.949 s
  Mean time/step:    0.0977 s  (excl. first step)
  Total wall time:   3m 27s
  Impulse FP iters last/mean/max: 7 / 7.424 / 30
  Approx impulse solves/step:     7.425
  Impulse start cache hits/direct: 1999 / 1
  Impulse global drift P/H:       4.980217e-3 / 8.211895e-1
  Impulse per-body max drift P/H: 5.445055e-3 / 1.260159e-1
  CPU cores:         256 available, 8 Rayon worker thread(s)
  Started:           2026-06-22 19:23:16
  Finished:          2026-06-22 19:26:45
  Output file:       /work/e643/e643/shared/multi_ellip/studies/two_body_paper_sweeps/runs/ellipsoid_1_0p8_0p6/ellipsoid_1_0p8_0p6_rho10_E0p2_sep3_run02_impulse_noproj/multiple_body_complete.dat
================================================
