
================ Simulation setup ================
  Run label:         /work/e643/e643/shared/multi_ellip/studies/two_body_paper_sweeps/runs/spheroid_1_0p7_0p7/spheroid_1_0p7_0p7_rho10_E4_sep11_run05_impulse_noproj/
  Started:           2026-06-24 01:18:36
  Input file:        /work/e643/e643/shared/multi_ellip/studies/two_body_paper_sweeps/runs/spheroid_1_0p7_0p7/spheroid_1_0p7_0p7_rho10_E4_sep11_run05_impulse_noproj/input.txt
  Output file:       /work/e643/e643/shared/multi_ellip/studies/two_body_paper_sweeps/runs/spheroid_1_0p7_0p7/spheroid_1_0p7_0p7_rho10_E4_sep11_run05_impulse_noproj/multiple_body_complete.dat
  Bodies:            2
  Fluid density:     1
  Mesh:              ndiv 2 -> 256 triangles / 516 nodes
  Simulated time:    0 -> 100  (dt = 0.05, ~2000 steps)
  Output cadence:    every 1 step(s)
  Output rows:       ~2001
  Progress cadence:  every 100 step(s)
  CPU cores:         256 available, 8 Rayon worker thread(s)
  Strong coupling:   disabled
  Impulse scheme:    enabled
  Hamiltonian step:  disabled
  Hamiltonian midpt: disabled
  Variational step:  disabled
  Energy projection: disabled
  Projection particular metric: Euclidean
  Fluid KE gradient: disabled  (eps = 0.001, scale = 1, linear = 1, angular = 1)
  Fluid KE discrete gradient: disabled
  Impulse pair metric correction: disabled  (mode = pair discrete-gradient, cutoff = all pairs, inner/outer = 0/0, eps = 0.001, linear scale = 1, angular scale = 0)
  Impulse metric correction: disabled  (internal load constraint = disabled)
  Impulse variational defect probe: disabled
  Impulse quadratic pressure: disabled  (scale = 1)
  Added-mass stab:   disabled
  Exact BEM geometry: disabled
  Exact singular BEM: disabled
  Legacy singular SLP diagnostic: disabled
  Phi-dot blend:     0 (off)

  Solver guidance:
    - Strong coupling: use for stiff close-coupled runs; slower but more implicit.
    - Impulse scheme: use when impulse/momentum conservation or KE drift is the focus. Recommended.
    - Added-mass stab: use for higher mesh counts (ndiv > 3) to preserve stability - deprecated.
================================================
Solver starting - good luck!

Initial state:
  Body  1
    density:          10.000000
    shape axes ratio: (1.000000, 0.700000, 0.700000)
    initial KE ratio: 4.000000
    position:         (-5.500000, 0.000000, 0.000000)
    velocity:         (1.900949, 0.339625, -0.987001)
    angular velocity: (0.840124, 4.467702, 4.337309)
    orientation:      (w=-0.290693, i=0.926735, j=-0.195111, k=-0.136351)
  Body  2
    density:          10.000000
    shape axes ratio: (1.000000, 0.700000, 0.700000)
    initial KE ratio: 4.000000
    position:         (5.500000, 0.000000, 0.000000)
    velocity:         (1.647818, 0.294401, -0.855572)
    angular velocity: (-5.403913, 1.265524, -2.945265)
    orientation:      (w=0.100282, i=0.533913, j=0.640153, k=0.543217)

Preparing first step: implicit scheme, no bootstrap passes required.
First step may take longer than later steps.

First step completed in 0.248 s.

Step   100/2000    5.0% | t 5.000 | ETA 2m 40s | step 0.08s | KE 951.8471 | drift -0.05% | fluid 15.1349 | solid 936.7122
  Impulse FP iterations last/mean/max 6/6.12/7
Step   200/2000   10.0% | t 10.000 | ETA 2m 36s | step 0.10s | KE 951.2179 | drift -0.11% | fluid 13.9164 | solid 937.3015
  Impulse FP iterations last/mean/max 7/6.14/7
Step   300/2000   15.0% | t 15.000 | ETA 2m 28s | step 0.08s | KE 950.1505 | drift -0.23% | fluid 14.3834 | solid 935.7671
  Impulse FP iterations last/mean/max 6/6.16/7
Step   400/2000   20.0% | t 20.000 | ETA 2m 20s | step 0.08s | KE 948.4934 | drift -0.40% | fluid 16.5988 | solid 931.8946
  Impulse FP iterations last/mean/max 6/6.18/7
Step   500/2000   25.0% | t 25.000 | ETA 2m 12s | step 0.08s | KE 946.3797 | drift -0.62% | fluid 13.8434 | solid 932.5363
  Impulse FP iterations last/mean/max 6/6.20/7
Step   600/2000   30.0% | t 30.000 | ETA 2m 2s | step 0.07s | KE 943.6984 | drift -0.90% | fluid 14.8363 | solid 928.8622
  Impulse FP iterations last/mean/max 6/6.26/7
Step   700/2000   35.0% | t 35.000 | ETA 1m 52s | step 0.08s | KE 941.6810 | drift -1.12% | fluid 16.4029 | solid 925.2781
  Impulse FP iterations last/mean/max 6/6.28/7
Step   800/2000   40.0% | t 40.000 | ETA 1m 43s | step 0.08s | KE 941.7148 | drift -1.11% | fluid 13.3886 | solid 928.3262
  Impulse FP iterations last/mean/max 6/6.27/7
Step   900/2000   45.0% | t 45.000 | ETA 1m 35s | step 0.08s | KE 943.4992 | drift -0.93% | fluid 15.0391 | solid 928.4602
  Impulse FP iterations last/mean/max 6/6.26/7
Step  1000/2000   50.0% | t 50.000 | ETA 1m 26s | step 0.09s | KE 946.3645 | drift -0.62% | fluid 13.7673 | solid 932.5972
  Impulse FP iterations last/mean/max 6/6.26/7
Step  1100/2000   55.0% | t 55.000 | ETA 1m 18s | step 0.10s | KE 948.9241 | drift -0.36% | fluid 16.1385 | solid 932.7856
  Impulse FP iterations last/mean/max 7/6.26/7
Step  1200/2000   60.0% | t 60.000 | ETA 1m 9s | step 0.09s | KE 950.9614 | drift -0.14% | fluid 15.4768 | solid 935.4847
  Impulse FP iterations last/mean/max 6/6.25/7
Step  1300/2000   65.0% | t 65.000 | ETA 1m 1s | step 0.09s | KE 952.4796 | drift +0.02% | fluid 13.1381 | solid 939.3416
  Impulse FP iterations last/mean/max 6/6.25/7
Step  1400/2000   70.0% | t 70.000 | ETA 52s | step 0.08s | KE 953.3640 | drift +0.11% | fluid 16.0061 | solid 937.3579
  Impulse FP iterations last/mean/max 6/6.26/7
Step  1500/2000   75.0% | t 75.000 | ETA 43s | step 0.08s | KE 954.0278 | drift +0.18% | fluid 16.2337 | solid 937.7940
  Impulse FP iterations last/mean/max 6/6.25/7
Step  1600/2000   80.0% | t 80.000 | ETA 35s | step 0.09s | KE 954.6074 | drift +0.24% | fluid 13.3425 | solid 941.2649
  Impulse FP iterations last/mean/max 6/6.25/7
Step  1700/2000   85.0% | t 85.000 | ETA 26s | step 0.09s | KE 954.9170 | drift +0.27% | fluid 14.2925 | solid 940.6245
  Impulse FP iterations last/mean/max 6/6.24/7
Step  1800/2000   90.0% | t 90.000 | ETA 17s | step 0.09s | KE 955.1354 | drift +0.30% | fluid 15.2757 | solid 939.8597
  Impulse FP iterations last/mean/max 7/6.23/7
Step  1900/2000   95.0% | t 95.000 | ETA 8s | step 0.09s | KE 955.3651 | drift +0.32% | fluid 14.3018 | solid 941.0633
  Impulse FP iterations last/mean/max 6/6.23/7
Solver finished successfully - good job!
Results saved successfully.

================== Run summary ==================
  Bodies:            2
  Triangles / nodes: 256 / 516
  Timesteps:         2000  (dt = 0.05)
  Simulated time:    0 -> 100
  First-step setup:  0.248 s
  Mean time/step:    0.0879 s  (excl. first step)
  Total wall time:   2m 56s
  Impulse FP iters last/mean/max: 6 / 6.223 / 7
  Approx impulse solves/step:     6.223
  Impulse start cache hits/direct: 1999 / 1
  Impulse global drift P/H:       4.284065e-9 / 9.540510e-3
  Impulse per-body max drift P/H: 8.969902e-9 / 3.982606e-3
  CPU cores:         256 available, 8 Rayon worker thread(s)
  Started:           2026-06-24 01:18:36
  Finished:          2026-06-24 01:21:33
  Output file:       /work/e643/e643/shared/multi_ellip/studies/two_body_paper_sweeps/runs/spheroid_1_0p7_0p7/spheroid_1_0p7_0p7_rho10_E4_sep11_run05_impulse_noproj/multiple_body_complete.dat
================================================
