
================ Simulation setup ================
  Run label:         /work/e643/e643/shared/multi_ellip/studies/two_body_paper_sweeps/runs/spheroid_1_0p7_0p7/spheroid_1_0p7_0p7_rho1_E0p2_sep11_run03_impulse_noproj/
  Started:           2026-06-24 01:29:36
  Input file:        /work/e643/e643/shared/multi_ellip/studies/two_body_paper_sweeps/runs/spheroid_1_0p7_0p7/spheroid_1_0p7_0p7_rho1_E0p2_sep11_run03_impulse_noproj/input.txt
  Output file:       /work/e643/e643/shared/multi_ellip/studies/two_body_paper_sweeps/runs/spheroid_1_0p7_0p7/spheroid_1_0p7_0p7_rho1_E0p2_sep11_run03_impulse_noproj/multiple_body_complete.dat
  Bodies:            2
  Fluid density:     1
  Mesh:              ndiv 2 -> 256 triangles / 516 nodes
  Simulated time:    0 -> 100  (dt = 0.05, ~2000 steps)
  Output cadence:    every 1 step(s)
  Output rows:       ~2001
  Progress cadence:  every 100 step(s)
  CPU cores:         256 available, 8 Rayon worker thread(s)
  Strong coupling:   disabled
  Impulse scheme:    enabled
  Hamiltonian step:  disabled
  Hamiltonian midpt: disabled
  Variational step:  disabled
  Energy projection: disabled
  Projection particular metric: Euclidean
  Fluid KE gradient: disabled  (eps = 0.001, scale = 1, linear = 1, angular = 1)
  Fluid KE discrete gradient: disabled
  Impulse pair metric correction: disabled  (mode = pair discrete-gradient, cutoff = all pairs, inner/outer = 0/0, eps = 0.001, linear scale = 1, angular scale = 0)
  Impulse metric correction: disabled  (internal load constraint = disabled)
  Impulse variational defect probe: disabled
  Impulse quadratic pressure: disabled  (scale = 1)
  Added-mass stab:   disabled
  Exact BEM geometry: disabled
  Exact singular BEM: disabled
  Legacy singular SLP diagnostic: disabled
  Phi-dot blend:     0 (off)

  Solver guidance:
    - Strong coupling: use for stiff close-coupled runs; slower but more implicit.
    - Impulse scheme: use when impulse/momentum conservation or KE drift is the focus. Recommended.
    - Added-mass stab: use for higher mesh counts (ndiv > 3) to preserve stability - deprecated.
================================================
Solver starting - good luck!

Initial state:
  Body  1
    density:          1.000000
    shape axes ratio: (1.000000, 0.700000, 0.700000)
    initial KE ratio: 0.200000
    position:         (-5.500000, 0.000000, 0.000000)
    velocity:         (-4.369758, -0.956385, 7.865459)
    angular velocity: (3.944443, 2.700040, -4.077936)
    orientation:      (w=0.050508, i=0.853028, j=-0.424068, k=0.299930)
  Body  2
    density:          1.000000
    shape axes ratio: (1.000000, 0.700000, 0.700000)
    initial KE ratio: 0.200000
    position:         (5.500000, 0.000000, 0.000000)
    velocity:         (-4.392637, -0.961393, 7.906641)
    angular velocity: (-3.809335, 0.624728, 4.957529)
    orientation:      (w=0.714177, i=0.361313, j=0.011609, k=-0.599391)

Preparing first step: implicit scheme, no bootstrap passes required.
First step may take longer than later steps.

First step completed in 0.329 s.

Step   100/2000    5.0% | t 5.000 | ETA 4m 25s | step 0.14s | KE 635.1109 | drift +0.02% | fluid 220.5335 | solid 414.5774
  Impulse FP iterations last/mean/max 9/9.76/10
Step   200/2000   10.0% | t 10.000 | ETA 4m 12s | step 0.15s | KE 634.9378 | drift -0.01% | fluid 222.0755 | solid 412.8623
  Impulse FP iterations last/mean/max 10/9.79/10
Step   300/2000   15.0% | t 15.000 | ETA 3m 58s | step 0.14s | KE 635.1589 | drift +0.03% | fluid 220.2279 | solid 414.9309
  Impulse FP iterations last/mean/max 10/9.81/10
Step   400/2000   20.0% | t 20.000 | ETA 3m 42s | step 0.13s | KE 635.4989 | drift +0.08% | fluid 222.1074 | solid 413.3915
  Impulse FP iterations last/mean/max 9/9.77/10
Step   500/2000   25.0% | t 25.000 | ETA 3m 27s | step 0.13s | KE 634.8573 | drift -0.02% | fluid 222.3445 | solid 412.5128
  Impulse FP iterations last/mean/max 9/9.72/10
Step   600/2000   30.0% | t 30.000 | ETA 3m 13s | step 0.14s | KE 634.7624 | drift -0.03% | fluid 217.0728 | solid 417.6896
  Impulse FP iterations last/mean/max 10/9.71/10
Step   700/2000   35.0% | t 35.000 | ETA 2m 59s | step 0.14s | KE 635.0562 | drift +0.01% | fluid 218.7027 | solid 416.3535
  Impulse FP iterations last/mean/max 10/9.71/10
Step   800/2000   40.0% | t 40.000 | ETA 2m 46s | step 0.15s | KE 634.7959 | drift -0.03% | fluid 220.5548 | solid 414.2411
  Impulse FP iterations last/mean/max 10/9.73/10
Step   900/2000   45.0% | t 45.000 | ETA 2m 32s | step 0.14s | KE 634.8808 | drift -0.02% | fluid 218.4829 | solid 416.3979
  Impulse FP iterations last/mean/max 10/9.73/10
Step  1000/2000   50.0% | t 50.000 | ETA 2m 18s | step 0.13s | KE 635.3297 | drift +0.05% | fluid 222.9024 | solid 412.4272
  Impulse FP iterations last/mean/max 9/9.71/10
Step  1100/2000   55.0% | t 55.000 | ETA 2m 4s | step 0.13s | KE 635.3256 | drift +0.05% | fluid 223.0304 | solid 412.2952
  Impulse FP iterations last/mean/max 9/9.69/10
Step  1200/2000   60.0% | t 60.000 | ETA 1m 50s | step 0.13s | KE 635.0272 | drift +0.01% | fluid 218.7913 | solid 416.2360
  Impulse FP iterations last/mean/max 10/9.69/10
Step  1300/2000   65.0% | t 65.000 | ETA 1m 36s | step 0.13s | KE 634.9253 | drift -0.01% | fluid 221.9021 | solid 413.0232
  Impulse FP iterations last/mean/max 9/9.71/10
Step  1400/2000   70.0% | t 70.000 | ETA 1m 22s | step 0.14s | KE 634.9594 | drift -0.00% | fluid 219.5613 | solid 415.3981
  Impulse FP iterations last/mean/max 10/9.71/10
Step  1500/2000   75.0% | t 75.000 | ETA 1m 8s | step 0.12s | KE 634.7595 | drift -0.04% | fluid 215.4468 | solid 419.3126
  Impulse FP iterations last/mean/max 10/9.71/10
Step  1600/2000   80.0% | t 80.000 | ETA 54s | step 0.13s | KE 634.8322 | drift -0.02% | fluid 221.6161 | solid 413.2161
  Impulse FP iterations last/mean/max 10/9.70/10
Step  1700/2000   85.0% | t 85.000 | ETA 40s | step 0.10s | KE 635.2849 | drift +0.05% | fluid 222.4677 | solid 412.8171
  Impulse FP iterations last/mean/max 10/9.69/10
Step  1800/2000   90.0% | t 90.000 | ETA 26s | step 0.10s | KE 635.1999 | drift +0.03% | fluid 219.3917 | solid 415.8082
  Impulse FP iterations last/mean/max 10/9.70/10
Step  1900/2000   95.0% | t 95.000 | ETA 13s | step 0.09s | KE 635.1309 | drift +0.02% | fluid 222.7752 | solid 412.3557
  Impulse FP iterations last/mean/max 9/9.71/10
Solver finished successfully - good job!
Results saved successfully.

================== Run summary ==================
  Bodies:            2
  Triangles / nodes: 256 / 516
  Timesteps:         2000  (dt = 0.05)
  Simulated time:    0 -> 100
  First-step setup:  0.329 s
  Mean time/step:    0.1300 s  (excl. first step)
  Total wall time:   4m 20s
  Impulse FP iters last/mean/max: 9 / 9.703 / 10
  Approx impulse solves/step:     9.704
  Impulse start cache hits/direct: 1999 / 1
  Impulse global drift P/H:       2.210649e-8 / 6.502412e-3
  Impulse per-body max drift P/H: 2.729267e-8 / 4.770647e-4
  CPU cores:         256 available, 8 Rayon worker thread(s)
  Started:           2026-06-24 01:29:36
  Finished:          2026-06-24 01:33:57
  Output file:       /work/e643/e643/shared/multi_ellip/studies/two_body_paper_sweeps/runs/spheroid_1_0p7_0p7/spheroid_1_0p7_0p7_rho1_E0p2_sep11_run03_impulse_noproj/multiple_body_complete.dat
================================================
