
================ Simulation setup ================
  Run label:         /work/e643/e643/shared/multi_ellip/studies/departing_sphericity_sweep/runs/triaxial/heterogeneous_aspherical/triaxial_heterogeneous_aspherical_eps1_rho1_E0p5_sep8_run06_impulse_noproj/
  Started:           2026-06-24 03:11:09
  Input file:        /work/e643/e643/shared/multi_ellip/studies/departing_sphericity_sweep/runs/triaxial/heterogeneous_aspherical/triaxial_heterogeneous_aspherical_eps1_rho1_E0p5_sep8_run06_impulse_noproj/input.txt
  Output file:       /work/e643/e643/shared/multi_ellip/studies/departing_sphericity_sweep/runs/triaxial/heterogeneous_aspherical/triaxial_heterogeneous_aspherical_eps1_rho1_E0p5_sep8_run06_impulse_noproj/multiple_body_complete.dat
  Bodies:            2
  Fluid density:     1
  Mesh:              ndiv 2 -> 256 triangles / 516 nodes
  Simulated time:    0 -> 100  (dt = 0.05, ~2000 steps)
  Output cadence:    every 1 step(s)
  Output rows:       ~2001
  Progress cadence:  every 100 step(s)
  CPU cores:         256 available, 8 Rayon worker thread(s)
  Strong coupling:   disabled
  Impulse scheme:    enabled
  Hamiltonian step:  disabled
  Hamiltonian midpt: disabled
  Variational step:  disabled
  Energy projection: disabled
  Projection particular metric: Euclidean
  Fluid KE gradient: disabled  (eps = 0.001, scale = 1, linear = 1, angular = 1)
  Fluid KE discrete gradient: disabled
  Impulse pair metric correction: disabled  (mode = pair discrete-gradient, cutoff = all pairs, inner/outer = 0/0, eps = 0.001, linear scale = 1, angular scale = 0)
  Impulse metric correction: disabled  (internal load constraint = disabled)
  Impulse variational defect probe: disabled
  Impulse quadratic pressure: disabled  (scale = 1)
  Added-mass stab:   disabled
  Exact BEM geometry: disabled
  Exact singular BEM: disabled
  Legacy singular SLP diagnostic: disabled
  Phi-dot blend:     0 (off)

  Solver guidance:
    - Strong coupling: use for stiff close-coupled runs; slower but more implicit.
    - Impulse scheme: use when impulse/momentum conservation or KE drift is the focus. Recommended.
    - Added-mass stab: use for higher mesh counts (ndiv > 3) to preserve stability - deprecated.
================================================
Solver starting - good luck!

Initial state:
  Body  1
    density:          1.000000
    shape axes ratio: (1.000000, 0.500000, 0.250000)
    initial KE ratio: 0.500000
    position:         (-4.000000, 0.000000, 0.000000)
    velocity:         (-4.511096, 6.303715, 2.662712)
    angular velocity: (-0.228629, 6.245420, -0.648752)
    orientation:      (w=-0.883790, i=-0.346637, j=-0.010926, k=0.314067)
  Body  2
    density:          1.000000
    shape axes ratio: (1.000000, 0.500000, 0.250000)
    initial KE ratio: 0.500000
    position:         (4.000000, 0.000000, 0.000000)
    velocity:         (-4.571033, 6.387470, 2.698090)
    angular velocity: (0.328597, -5.721617, -2.575566)
    orientation:      (w=0.869998, i=-0.146719, j=-0.440822, k=-0.165084)

Preparing first step: implicit scheme, no bootstrap passes required.
First step may take longer than later steps.

First step completed in 0.339 s.

Step   100/2000    5.0% | t 5.000 | ETA 5m 28s | step 0.17s | KE 715.2149 | drift -1.02% | fluid 306.5819 | solid 408.6330
  Impulse FP iterations last/mean/max 17/17.05/19
Step   200/2000   10.0% | t 10.000 | ETA 5m 12s | step 0.17s | KE 711.9405 | drift -1.47% | fluid 321.0694 | solid 390.8711
  Impulse FP iterations last/mean/max 17/17.11/19
Step   300/2000   15.0% | t 15.000 | ETA 4m 50s | step 0.16s | KE 714.6073 | drift -1.10% | fluid 277.4198 | solid 437.1875
  Impulse FP iterations last/mean/max 17/17.06/19
Step   400/2000   20.0% | t 20.000 | ETA 4m 28s | step 0.16s | KE 712.0797 | drift -1.45% | fluid 277.7381 | solid 434.3415
  Impulse FP iterations last/mean/max 18/16.97/19
Step   500/2000   25.0% | t 25.000 | ETA 4m 6s | step 0.15s | KE 715.4806 | drift -0.98% | fluid 365.4610 | solid 350.0196
  Impulse FP iterations last/mean/max 17/16.97/19
Step   600/2000   30.0% | t 30.000 | ETA 3m 53s | step 0.18s | KE 711.8545 | drift -1.48% | fluid 331.9453 | solid 379.9092
  Impulse FP iterations last/mean/max 18/16.96/19
Step   700/2000   35.0% | t 35.000 | ETA 3m 38s | step 0.19s | KE 713.9113 | drift -1.20% | fluid 308.5577 | solid 405.3536
  Impulse FP iterations last/mean/max 17/16.98/19
Step   800/2000   40.0% | t 40.000 | ETA 3m 23s | step 0.16s | KE 715.0146 | drift -1.04% | fluid 271.5890 | solid 443.4256
  Impulse FP iterations last/mean/max 16/17.00/20
Step   900/2000   45.0% | t 45.000 | ETA 3m 6s | step 0.16s | KE 715.8200 | drift -0.93% | fluid 253.3663 | solid 462.4537
  Impulse FP iterations last/mean/max 16/17.00/20
Step  1000/2000   50.0% | t 50.000 | ETA 2m 49s | step 0.16s | KE 713.9538 | drift -1.19% | fluid 284.9828 | solid 428.9709
  Impulse FP iterations last/mean/max 17/17.00/20
Step  1100/2000   55.0% | t 55.000 | ETA 2m 32s | step 0.17s | KE 716.7912 | drift -0.80% | fluid 333.1705 | solid 383.6207
  Impulse FP iterations last/mean/max 17/16.99/20
Step  1200/2000   60.0% | t 60.000 | ETA 2m 14s | step 0.16s | KE 712.2603 | drift -1.43% | fluid 317.2988 | solid 394.9616
  Impulse FP iterations last/mean/max 17/16.98/20
Step  1300/2000   65.0% | t 65.000 | ETA 1m 57s | step 0.17s | KE 711.3225 | drift -1.55% | fluid 357.5048 | solid 353.8177
  Impulse FP iterations last/mean/max 18/16.98/20
Step  1400/2000   70.0% | t 70.000 | ETA 1m 40s | step 0.15s | KE 713.4080 | drift -1.27% | fluid 291.9681 | solid 421.4399
  Impulse FP iterations last/mean/max 16/16.99/20
Step  1500/2000   75.0% | t 75.000 | ETA 1m 23s | step 0.17s | KE 708.5348 | drift -1.94% | fluid 301.9930 | solid 406.5418
  Impulse FP iterations last/mean/max 17/16.99/20
Step  1600/2000   80.0% | t 80.000 | ETA 1m 6s | step 0.17s | KE 712.1614 | drift -1.44% | fluid 304.6467 | solid 407.5148
  Impulse FP iterations last/mean/max 17/16.97/20
Step  1700/2000   85.0% | t 85.000 | ETA 50s | step 0.17s | KE 712.4463 | drift -1.40% | fluid 313.8669 | solid 398.5793
  Impulse FP iterations last/mean/max 18/16.97/20
Step  1800/2000   90.0% | t 90.000 | ETA 33s | step 0.17s | KE 708.4620 | drift -1.95% | fluid 355.7641 | solid 352.6979
  Impulse FP iterations last/mean/max 18/16.97/20
Step  1900/2000   95.0% | t 95.000 | ETA 16s | step 0.17s | KE 712.9936 | drift -1.32% | fluid 296.2792 | solid 416.7144
  Impulse FP iterations last/mean/max 18/16.97/20
Solver finished successfully - good job!
Results saved successfully.

================== Run summary ==================
  Bodies:            2
  Triangles / nodes: 256 / 516
  Timesteps:         2000  (dt = 0.05)
  Simulated time:    0 -> 100
  First-step setup:  0.339 s
  Mean time/step:    0.1658 s  (excl. first step)
  Total wall time:   5m 31s
  Impulse FP iters last/mean/max: 16 / 16.960 / 20
  Approx impulse solves/step:     16.960
  Impulse start cache hits/direct: 1999 / 1
  Impulse global drift P/H:       1.001787e-9 / 5.636193e-2
  Impulse per-body max drift P/H: 2.521077e-9 / 4.713418e-2
  CPU cores:         256 available, 8 Rayon worker thread(s)
  Started:           2026-06-24 03:11:09
  Finished:          2026-06-24 03:16:41
  Output file:       /work/e643/e643/shared/multi_ellip/studies/departing_sphericity_sweep/runs/triaxial/heterogeneous_aspherical/triaxial_heterogeneous_aspherical_eps1_rho1_E0p5_sep8_run06_impulse_noproj/multiple_body_complete.dat
================================================
