
================ Simulation setup ================
  Run label:         /work/e643/e643/shared/multi_ellip/studies/two_body_paper_sweeps/runs/spheroid_1_0p7_0p7/spheroid_1_0p7_0p7_rho1_E0p55_sep8_run02_impulse_noproj/
  Started:           2026-06-22 19:34:20
  Input file:        /work/e643/e643/shared/multi_ellip/studies/two_body_paper_sweeps/runs/spheroid_1_0p7_0p7/spheroid_1_0p7_0p7_rho1_E0p55_sep8_run02_impulse_noproj/input.txt
  Output file:       /work/e643/e643/shared/multi_ellip/studies/two_body_paper_sweeps/runs/spheroid_1_0p7_0p7/spheroid_1_0p7_0p7_rho1_E0p55_sep8_run02_impulse_noproj/multiple_body_complete.dat
  Bodies:            2
  Fluid density:     1
  Mesh:              ndiv 2 -> 256 triangles / 516 nodes
  Simulated time:    0 -> 100  (dt = 0.05, ~2000 steps)
  Output cadence:    every 1 step(s)
  Output rows:       ~2001
  Progress cadence:  every 100 step(s)
  CPU cores:         256 available, 8 Rayon worker thread(s)
  Strong coupling:   disabled
  Impulse scheme:    enabled
  Hamiltonian step:  disabled
  Hamiltonian midpt: disabled
  Variational step:  disabled
  Energy projection: disabled
  Projection particular metric: Euclidean
  Fluid KE gradient: disabled  (eps = 0.001, scale = 1, linear = 1, angular = 1)
  Fluid KE discrete gradient: disabled
  Impulse pair metric correction: disabled  (mode = pair discrete-gradient, cutoff = all pairs, inner/outer = 0/0, eps = 0.001, linear scale = 1, angular scale = 0)
  Impulse metric correction: disabled  (internal load constraint = disabled)
  Impulse variational defect probe: disabled
  Impulse quadratic pressure: disabled  (scale = 1)
  Added-mass stab:   disabled
  Exact BEM geometry: disabled
  Exact singular BEM: disabled
  Legacy singular SLP diagnostic: disabled
  Phi-dot blend:     0 (off)

  Solver guidance:
    - Strong coupling: use for stiff close-coupled runs; slower but more implicit.
    - Impulse scheme: use when impulse/momentum conservation or KE drift is the focus. Recommended.
    - Added-mass stab: use for higher mesh counts (ndiv > 3) to preserve stability - deprecated.
================================================
Solver starting - good luck!

Initial state:
  Body  1
    density:          1.000000
    shape axes ratio: (1.000000, 0.700000, 0.700000)
    initial KE ratio: 0.550000
    position:         (-4.000000, 0.000000, 0.000000)
    velocity:         (1.865554, -1.609691, -5.162345)
    angular velocity: (2.382647, 1.824475, -5.520209)
    orientation:      (w=0.577350, i=0.577350, j=0.577350, k=0.000000)
  Body  2
    density:          1.000000
    shape axes ratio: (1.000000, 0.700000, 0.700000)
    initial KE ratio: 0.550000
    position:         (4.000000, 0.000000, 0.000000)
    velocity:         (1.913233, -1.650830, -5.294280)
    angular velocity: (-0.006239, -2.521669, -5.754960)
    orientation:      (w=0.577350, i=-0.577350, j=0.000000, k=0.577350)

Preparing first step: implicit scheme, no bootstrap passes required.
First step may take longer than later steps.

First step completed in 0.254 s.

Step   100/2000    5.0% | t 5.000 | ETA 4m 30s | step 0.15s | KE 292.7957 | drift +0.16% | fluid 86.5730 | solid 206.2227
  Impulse FP iterations last/mean/max 10/9.97/10
Step   200/2000   10.0% | t 10.000 | ETA 4m 17s | step 0.15s | KE 293.3277 | drift +0.35% | fluid 87.6505 | solid 205.6773
  Impulse FP iterations last/mean/max 10/9.96/10
Step   300/2000   15.0% | t 15.000 | ETA 4m 2s | step 0.14s | KE 293.0351 | drift +0.25% | fluid 87.2312 | solid 205.8039
  Impulse FP iterations last/mean/max 10/9.95/10
Step   400/2000   20.0% | t 20.000 | ETA 3m 48s | step 0.14s | KE 293.2853 | drift +0.33% | fluid 87.2991 | solid 205.9862
  Impulse FP iterations last/mean/max 10/9.95/10
Step   500/2000   25.0% | t 25.000 | ETA 3m 34s | step 0.14s | KE 292.3095 | drift -0.00% | fluid 88.4581 | solid 203.8514
  Impulse FP iterations last/mean/max 10/9.96/10
Step   600/2000   30.0% | t 30.000 | ETA 3m 19s | step 0.15s | KE 292.9480 | drift +0.22% | fluid 87.8269 | solid 205.1211
  Impulse FP iterations last/mean/max 10/9.95/10
Step   700/2000   35.0% | t 35.000 | ETA 3m 5s | step 0.14s | KE 292.6039 | drift +0.10% | fluid 86.6903 | solid 205.9136
  Impulse FP iterations last/mean/max 10/9.95/10
Step   800/2000   40.0% | t 40.000 | ETA 2m 51s | step 0.15s | KE 293.3843 | drift +0.37% | fluid 87.2560 | solid 206.1283
  Impulse FP iterations last/mean/max 10/9.95/10
Step   900/2000   45.0% | t 45.000 | ETA 2m 36s | step 0.13s | KE 293.3091 | drift +0.34% | fluid 87.9077 | solid 205.4014
  Impulse FP iterations last/mean/max 9/9.95/10
Step  1000/2000   50.0% | t 50.000 | ETA 2m 22s | step 0.14s | KE 293.2217 | drift +0.31% | fluid 87.1622 | solid 206.0596
  Impulse FP iterations last/mean/max 10/9.95/10
Step  1100/2000   55.0% | t 55.000 | ETA 2m 8s | step 0.14s | KE 293.0086 | drift +0.24% | fluid 87.1218 | solid 205.8869
  Impulse FP iterations last/mean/max 10/9.95/10
Step  1200/2000   60.0% | t 60.000 | ETA 1m 54s | step 0.14s | KE 292.6126 | drift +0.10% | fluid 88.3799 | solid 204.2327
  Impulse FP iterations last/mean/max 10/9.94/10
Step  1300/2000   65.0% | t 65.000 | ETA 1m 39s | step 0.14s | KE 292.8729 | drift +0.19% | fluid 88.0245 | solid 204.8484
  Impulse FP iterations last/mean/max 10/9.94/10
Step  1400/2000   70.0% | t 70.000 | ETA 1m 25s | step 0.14s | KE 292.7400 | drift +0.15% | fluid 86.5345 | solid 206.2055
  Impulse FP iterations last/mean/max 10/9.94/10
Step  1500/2000   75.0% | t 75.000 | ETA 1m 11s | step 0.15s | KE 293.1771 | drift +0.29% | fluid 86.4303 | solid 206.7468
  Impulse FP iterations last/mean/max 10/9.93/10
Step  1600/2000   80.0% | t 80.000 | ETA 56s | step 0.15s | KE 293.0279 | drift +0.24% | fluid 86.4509 | solid 206.5770
  Impulse FP iterations last/mean/max 10/9.93/10
Step  1700/2000   85.0% | t 85.000 | ETA 42s | step 0.15s | KE 293.0239 | drift +0.24% | fluid 85.0477 | solid 207.9762
  Impulse FP iterations last/mean/max 10/9.92/10
Step  1800/2000   90.0% | t 90.000 | ETA 28s | step 0.14s | KE 292.8257 | drift +0.17% | fluid 84.3755 | solid 208.4502
  Impulse FP iterations last/mean/max 10/9.91/10
Step  1900/2000   95.0% | t 95.000 | ETA 14s | step 0.13s | KE 292.8481 | drift +0.18% | fluid 85.6365 | solid 207.2116
  Impulse FP iterations last/mean/max 10/9.90/10
Solver finished successfully - good job!
Results saved successfully.

================== Run summary ==================
  Bodies:            2
  Triangles / nodes: 256 / 516
  Timesteps:         2000  (dt = 0.05)
  Simulated time:    0 -> 100
  First-step setup:  0.254 s
  Mean time/step:    0.1410 s  (excl. first step)
  Total wall time:   4m 42s
  Impulse FP iters last/mean/max: 10 / 9.896 / 10
  Approx impulse solves/step:     9.896
  Impulse start cache hits/direct: 1999 / 1
  Impulse global drift P/H:       2.662395e-9 / 1.463656e-2
  Impulse per-body max drift P/H: 1.038973e-8 / 1.320461e-3
  CPU cores:         256 available, 8 Rayon worker thread(s)
  Started:           2026-06-22 19:34:20
  Finished:          2026-06-22 19:39:02
  Output file:       /work/e643/e643/shared/multi_ellip/studies/two_body_paper_sweeps/runs/spheroid_1_0p7_0p7/spheroid_1_0p7_0p7_rho1_E0p55_sep8_run02_impulse_noproj/multiple_body_complete.dat
================================================
