
================ Simulation setup ================
  Run label:         /work/e643/e643/shared/multi_ellip/studies/two_body_paper_sweeps/runs/ellipsoid_1_0p8_0p6/ellipsoid_1_0p8_0p6_rho0p3_E0p55_sep8_run03_impulse_noproj/
  Started:           2026-06-24 01:51:02
  Input file:        /work/e643/e643/shared/multi_ellip/studies/two_body_paper_sweeps/runs/ellipsoid_1_0p8_0p6/ellipsoid_1_0p8_0p6_rho0p3_E0p55_sep8_run03_impulse_noproj/input.txt
  Output file:       /work/e643/e643/shared/multi_ellip/studies/two_body_paper_sweeps/runs/ellipsoid_1_0p8_0p6/ellipsoid_1_0p8_0p6_rho0p3_E0p55_sep8_run03_impulse_noproj/multiple_body_complete.dat
  Bodies:            2
  Fluid density:     1
  Mesh:              ndiv 2 -> 256 triangles / 516 nodes
  Simulated time:    0 -> 100  (dt = 0.05, ~2000 steps)
  Output cadence:    every 1 step(s)
  Output rows:       ~2001
  Progress cadence:  every 100 step(s)
  CPU cores:         256 available, 8 Rayon worker thread(s)
  Strong coupling:   disabled
  Impulse scheme:    enabled
  Hamiltonian step:  disabled
  Hamiltonian midpt: disabled
  Variational step:  disabled
  Energy projection: disabled
  Projection particular metric: Euclidean
  Fluid KE gradient: disabled  (eps = 0.001, scale = 1, linear = 1, angular = 1)
  Fluid KE discrete gradient: disabled
  Impulse pair metric correction: disabled  (mode = pair discrete-gradient, cutoff = all pairs, inner/outer = 0/0, eps = 0.001, linear scale = 1, angular scale = 0)
  Impulse metric correction: disabled  (internal load constraint = disabled)
  Impulse variational defect probe: disabled
  Impulse quadratic pressure: disabled  (scale = 1)
  Added-mass stab:   disabled
  Exact BEM geometry: disabled
  Exact singular BEM: disabled
  Legacy singular SLP diagnostic: disabled
  Phi-dot blend:     0 (off)

  Solver guidance:
    - Strong coupling: use for stiff close-coupled runs; slower but more implicit.
    - Impulse scheme: use when impulse/momentum conservation or KE drift is the focus. Recommended.
    - Added-mass stab: use for higher mesh counts (ndiv > 3) to preserve stability - deprecated.
================================================
Solver starting - good luck!

Initial state:
  Body  1
    density:          0.300000
    shape axes ratio: (1.000000, 0.800000, 0.600000)
    initial KE ratio: 0.550000
    position:         (-4.000000, 0.000000, 0.000000)
    velocity:         (-4.695882, -2.245311, 1.670209)
    angular velocity: (-4.583370, -1.814525, -3.895977)
    orientation:      (w=0.351937, i=-0.290166, j=0.406068, k=0.791867)
  Body  2
    density:          0.300000
    shape axes ratio: (1.000000, 0.800000, 0.600000)
    initial KE ratio: 0.550000
    position:         (4.000000, 0.000000, 0.000000)
    velocity:         (-5.044126, -2.411821, 1.794071)
    angular velocity: (1.958472, -3.855748, -4.558071)
    orientation:      (w=-0.061464, i=-0.017698, j=-0.352682, k=0.933555)

Preparing first step: implicit scheme, no bootstrap passes required.
First step may take longer than later steps.

First step completed in 0.306 s.

Step   100/2000    5.0% | t 5.000 | ETA 6m 19s | step 0.22s | KE 137.4808 | drift +1.40% | fluid 72.5886 | solid 64.8922
  Impulse FP iterations last/mean/max 16/14.35/16
Step   200/2000   10.0% | t 10.000 | ETA 6m 3s | step 0.21s | KE 137.9574 | drift +1.75% | fluid 71.2014 | solid 66.7559
  Impulse FP iterations last/mean/max 15/14.45/16
Step   300/2000   15.0% | t 15.000 | ETA 5m 34s | step 0.16s | KE 138.4721 | drift +2.13% | fluid 73.9934 | solid 64.4787
  Impulse FP iterations last/mean/max 14/14.43/16
Step   400/2000   20.0% | t 20.000 | ETA 5m 8s | step 0.18s | KE 138.3319 | drift +2.03% | fluid 74.1086 | solid 64.2233
  Impulse FP iterations last/mean/max 14/14.43/16
Step   500/2000   25.0% | t 25.000 | ETA 4m 48s | step 0.18s | KE 138.1946 | drift +1.92% | fluid 73.9058 | solid 64.2888
  Impulse FP iterations last/mean/max 14/14.46/16
Step   600/2000   30.0% | t 30.000 | ETA 4m 31s | step 0.19s | KE 138.2796 | drift +1.99% | fluid 72.6120 | solid 65.6676
  Impulse FP iterations last/mean/max 13/14.44/16
Step   700/2000   35.0% | t 35.000 | ETA 4m 13s | step 0.22s | KE 137.8296 | drift +1.66% | fluid 72.7867 | solid 65.0430
  Impulse FP iterations last/mean/max 15/14.43/16
Step   800/2000   40.0% | t 40.000 | ETA 3m 55s | step 0.20s | KE 137.9883 | drift +1.77% | fluid 70.8369 | solid 67.1514
  Impulse FP iterations last/mean/max 14/14.43/16
Step   900/2000   45.0% | t 45.000 | ETA 3m 36s | step 0.20s | KE 138.0144 | drift +1.79% | fluid 69.8481 | solid 68.1664
  Impulse FP iterations last/mean/max 14/14.43/16
Step  1000/2000   50.0% | t 50.000 | ETA 3m 17s | step 0.21s | KE 138.0192 | drift +1.79% | fluid 72.6874 | solid 65.3319
  Impulse FP iterations last/mean/max 15/14.42/16
Step  1100/2000   55.0% | t 55.000 | ETA 2m 58s | step 0.18s | KE 138.2136 | drift +1.94% | fluid 72.5135 | solid 65.7001
  Impulse FP iterations last/mean/max 14/14.42/16
Step  1200/2000   60.0% | t 60.000 | ETA 2m 38s | step 0.20s | KE 138.3815 | drift +2.06% | fluid 72.5469 | solid 65.8346
  Impulse FP iterations last/mean/max 15/14.42/17
Step  1300/2000   65.0% | t 65.000 | ETA 2m 19s | step 0.22s | KE 137.8166 | drift +1.65% | fluid 69.7435 | solid 68.0730
  Impulse FP iterations last/mean/max 15/14.42/17
Step  1400/2000   70.0% | t 70.000 | ETA 1m 59s | step 0.20s | KE 137.9210 | drift +1.72% | fluid 71.0727 | solid 66.8483
  Impulse FP iterations last/mean/max 14/14.43/17
Step  1500/2000   75.0% | t 75.000 | ETA 1m 39s | step 0.21s | KE 137.7180 | drift +1.57% | fluid 72.3766 | solid 65.3414
  Impulse FP iterations last/mean/max 15/14.44/17
Step  1600/2000   80.0% | t 80.000 | ETA 1m 19s | step 0.22s | KE 137.1530 | drift +1.16% | fluid 72.5053 | solid 64.6477
  Impulse FP iterations last/mean/max 16/14.44/17
Step  1700/2000   85.0% | t 85.000 | ETA 59s | step 0.19s | KE 138.2314 | drift +1.95% | fluid 71.4420 | solid 66.7894
  Impulse FP iterations last/mean/max 14/14.45/17
Step  1800/2000   90.0% | t 90.000 | ETA 40s | step 0.21s | KE 137.9848 | drift +1.77% | fluid 73.1030 | solid 64.8818
  Impulse FP iterations last/mean/max 15/14.45/17
Step  1900/2000   95.0% | t 95.000 | ETA 20s | step 0.21s | KE 138.1594 | drift +1.90% | fluid 73.9084 | solid 64.2509
  Impulse FP iterations last/mean/max 14/14.45/17
Solver finished successfully - good job!
Results saved successfully.

================== Run summary ==================
  Bodies:            2
  Triangles / nodes: 256 / 516
  Timesteps:         2000  (dt = 0.05)
  Simulated time:    0 -> 100
  First-step setup:  0.306 s
  Mean time/step:    0.2005 s  (excl. first step)
  Total wall time:   6m 41s
  Impulse FP iters last/mean/max: 14 / 14.459 / 17
  Approx impulse solves/step:     14.459
  Impulse start cache hits/direct: 1999 / 1
  Impulse global drift P/H:       1.057260e-8 / 1.756022e-2
  Impulse per-body max drift P/H: 1.428210e-8 / 9.330478e-3
  CPU cores:         256 available, 8 Rayon worker thread(s)
  Started:           2026-06-24 01:51:02
  Finished:          2026-06-24 01:57:44
  Output file:       /work/e643/e643/shared/multi_ellip/studies/two_body_paper_sweeps/runs/ellipsoid_1_0p8_0p6/ellipsoid_1_0p8_0p6_rho0p3_E0p55_sep8_run03_impulse_noproj/multiple_body_complete.dat
================================================
