
================ Simulation setup ================
  Run label:         /work/e643/e643/shared/multi_ellip/studies/two_body_paper_sweeps/runs/spheroid_1_0p7_0p7/spheroid_1_0p7_0p7_rho0p1_E30_sep5_run01_impulse_noproj/
  Started:           2026-06-22 20:00:40
  Input file:        /work/e643/e643/shared/multi_ellip/studies/two_body_paper_sweeps/runs/spheroid_1_0p7_0p7/spheroid_1_0p7_0p7_rho0p1_E30_sep5_run01_impulse_noproj/input.txt
  Output file:       /work/e643/e643/shared/multi_ellip/studies/two_body_paper_sweeps/runs/spheroid_1_0p7_0p7/spheroid_1_0p7_0p7_rho0p1_E30_sep5_run01_impulse_noproj/multiple_body_complete.dat
  Bodies:            2
  Fluid density:     1
  Mesh:              ndiv 2 -> 256 triangles / 516 nodes
  Simulated time:    0 -> 100  (dt = 0.05, ~2000 steps)
  Output cadence:    every 1 step(s)
  Output rows:       ~2001
  Progress cadence:  every 100 step(s)
  CPU cores:         256 available, 8 Rayon worker thread(s)
  Strong coupling:   disabled
  Impulse scheme:    enabled
  Hamiltonian step:  disabled
  Hamiltonian midpt: disabled
  Variational step:  disabled
  Energy projection: disabled
  Projection particular metric: Euclidean
  Fluid KE gradient: disabled  (eps = 0.001, scale = 1, linear = 1, angular = 1)
  Fluid KE discrete gradient: disabled
  Impulse pair metric correction: disabled  (mode = pair discrete-gradient, cutoff = all pairs, inner/outer = 0/0, eps = 0.001, linear scale = 1, angular scale = 0)
  Impulse metric correction: disabled  (internal load constraint = disabled)
  Impulse variational defect probe: disabled
  Impulse quadratic pressure: disabled  (scale = 1)
  Added-mass stab:   disabled
  Exact BEM geometry: disabled
  Exact singular BEM: disabled
  Legacy singular SLP diagnostic: disabled
  Phi-dot blend:     0 (off)

  Solver guidance:
    - Strong coupling: use for stiff close-coupled runs; slower but more implicit.
    - Impulse scheme: use when impulse/momentum conservation or KE drift is the focus. Recommended.
    - Added-mass stab: use for higher mesh counts (ndiv > 3) to preserve stability - deprecated.
================================================
Solver starting - good luck!

Initial state:
  Body  1
    density:          0.100000
    shape axes ratio: (1.000000, 0.700000, 0.700000)
    initial KE ratio: 30.000000
    position:         (-2.500000, 0.000000, 0.000000)
    velocity:         (0.029427, 0.635091, 0.118023)
    angular velocity: (-6.237153, 0.326227, -0.685500)
    orientation:      (w=0.447214, i=0.894427, j=0.000000, k=0.000000)
  Body  2
    density:          0.100000
    shape axes ratio: (1.000000, 0.700000, 0.700000)
    initial KE ratio: 30.000000
    position:         (2.500000, 0.000000, 0.000000)
    velocity:         (0.033769, 0.728812, 0.135440)
    angular velocity: (-3.831163, 4.963565, 0.404513)
    orientation:      (w=0.707107, i=0.000000, j=0.707107, k=0.000000)

Preparing first step: implicit scheme, no bootstrap passes required.
First step may take longer than later steps.

First step completed in 0.333 s.

Step   100/2000    5.0% | t 5.000 | ETA 6m 42s | step 0.20s | KE 11.5355 | drift +0.91% | fluid 4.7100 | solid 6.8255
  Impulse FP iterations last/mean/max 14/15.25/17
Step   200/2000   10.0% | t 10.000 | ETA 6m 16s | step 0.17s | KE 11.6876 | drift +2.24% | fluid 4.8099 | solid 6.8777
  Impulse FP iterations last/mean/max 13/15.31/17
Step   300/2000   15.0% | t 15.000 | ETA 5m 53s | step 0.23s | KE 11.7263 | drift +2.57% | fluid 4.8312 | solid 6.8951
  Impulse FP iterations last/mean/max 17/15.39/17
Step   400/2000   20.0% | t 20.000 | ETA 5m 32s | step 0.17s | KE 11.4903 | drift +0.51% | fluid 4.7862 | solid 6.7041
  Impulse FP iterations last/mean/max 14/15.41/17
Step   500/2000   25.0% | t 25.000 | ETA 5m 11s | step 0.19s | KE 11.0863 | drift -3.02% | fluid 4.7131 | solid 6.3732
  Impulse FP iterations last/mean/max 15/15.42/17
Step   600/2000   30.0% | t 30.000 | ETA 4m 48s | step 0.17s | KE 10.8513 | drift -5.08% | fluid 4.6669 | solid 6.1844
  Impulse FP iterations last/mean/max 13/15.36/17
Step   700/2000   35.0% | t 35.000 | ETA 4m 24s | step 0.18s | KE 10.7966 | drift -5.56% | fluid 4.6731 | solid 6.1234
  Impulse FP iterations last/mean/max 14/15.27/17
Step   800/2000   40.0% | t 40.000 | ETA 4m 3s | step 0.21s | KE 10.7876 | drift -5.64% | fluid 4.6824 | solid 6.1052
  Impulse FP iterations last/mean/max 15/15.21/17
Step   900/2000   45.0% | t 45.000 | ETA 3m 41s | step 0.18s | KE 10.7557 | drift -5.92% | fluid 4.6969 | solid 6.0588
  Impulse FP iterations last/mean/max 14/15.13/17
Step  1000/2000   50.0% | t 50.000 | ETA 3m 19s | step 0.20s | KE 10.6831 | drift -6.55% | fluid 4.7223 | solid 5.9608
  Impulse FP iterations last/mean/max 15/15.04/17
Step  1100/2000   55.0% | t 55.000 | ETA 2m 58s | step 0.19s | KE 10.5932 | drift -7.34% | fluid 4.7201 | solid 5.8731
  Impulse FP iterations last/mean/max 16/15.01/17
Step  1200/2000   60.0% | t 60.000 | ETA 2m 38s | step 0.16s | KE 10.5320 | drift -7.87% | fluid 4.6940 | solid 5.8380
  Impulse FP iterations last/mean/max 12/14.96/17
Step  1300/2000   65.0% | t 65.000 | ETA 2m 17s | step 0.21s | KE 10.5107 | drift -8.06% | fluid 4.6704 | solid 5.8403
  Impulse FP iterations last/mean/max 17/14.93/17
Step  1400/2000   70.0% | t 70.000 | ETA 1m 57s | step 0.21s | KE 10.5137 | drift -8.03% | fluid 4.6713 | solid 5.8424
  Impulse FP iterations last/mean/max 15/14.88/17
Step  1500/2000   75.0% | t 75.000 | ETA 1m 37s | step 0.15s | KE 10.5238 | drift -7.94% | fluid 4.7007 | solid 5.8231
  Impulse FP iterations last/mean/max 13/14.82/17
Step  1600/2000   80.0% | t 80.000 | ETA 1m 17s | step 0.17s | KE 10.5261 | drift -7.92% | fluid 4.7219 | solid 5.8042
  Impulse FP iterations last/mean/max 13/14.77/17
Step  1700/2000   85.0% | t 85.000 | ETA 57s | step 0.15s | KE 10.5175 | drift -8.00% | fluid 4.7057 | solid 5.8118
  Impulse FP iterations last/mean/max 12/14.72/17
Step  1800/2000   90.0% | t 90.000 | ETA 38s | step 0.17s | KE 10.5103 | drift -8.06% | fluid 4.6749 | solid 5.8354
  Impulse FP iterations last/mean/max 14/14.69/17
Step  1900/2000   95.0% | t 95.000 | ETA 19s | step 0.19s | KE 10.5161 | drift -8.01% | fluid 4.6700 | solid 5.8461
  Impulse FP iterations last/mean/max 14/14.65/17
Solver finished successfully - good job!
Results saved successfully.

================== Run summary ==================
  Bodies:            2
  Triangles / nodes: 256 / 516
  Timesteps:         2000  (dt = 0.05)
  Simulated time:    0 -> 100
  First-step setup:  0.333 s
  Mean time/step:    0.1910 s  (excl. first step)
  Total wall time:   6m 22s
  Impulse FP iters last/mean/max: 16 / 14.617 / 17
  Approx impulse solves/step:     14.618
  Impulse start cache hits/direct: 1999 / 1
  Impulse global drift P/H:       3.949073e-8 / 1.192196e-2
  Impulse per-body max drift P/H: 5.173764e-8 / 3.468218e-3
  CPU cores:         256 available, 8 Rayon worker thread(s)
  Started:           2026-06-22 20:00:40
  Finished:          2026-06-22 20:07:02
  Output file:       /work/e643/e643/shared/multi_ellip/studies/two_body_paper_sweeps/runs/spheroid_1_0p7_0p7/spheroid_1_0p7_0p7_rho0p1_E30_sep5_run01_impulse_noproj/multiple_body_complete.dat
================================================
