
================ Simulation setup ================
  Run label:         /work/e643/e643/shared/multi_ellip/studies/multibody_convergence_sweep/runs/periodic_grid_ellipsoid_1_0p8_0p6_rho4_E1_sep8_nd1_dt0p05/
  Started:           2026-06-22 18:51:57
  Input file:        /work/e643/e643/shared/multi_ellip/studies/multibody_convergence_sweep/runs/periodic_grid_ellipsoid_1_0p8_0p6_rho4_E1_sep8_nd1_dt0p05/input.txt
  Output file:       /work/e643/e643/shared/multi_ellip/studies/multibody_convergence_sweep/runs/periodic_grid_ellipsoid_1_0p8_0p6_rho4_E1_sep8_nd1_dt0p05/multiple_body_complete.dat
  Bodies:            2
  Fluid density:     1
  Mesh:              ndiv 1 -> 64 triangles / 132 nodes
  Simulated time:    0 -> 10  (dt = 0.05, ~200 steps)
  Output cadence:    every 1 step(s)
  Output rows:       ~201
  Progress cadence:  every 20 step(s)
  CPU cores:         256 available, 16 Rayon worker thread(s)
  Strong coupling:   disabled
  Impulse scheme:    enabled
  Hamiltonian step:  disabled
  Hamiltonian midpt: disabled
  Variational step:  disabled
  Energy projection: disabled
  Projection particular metric: Euclidean
  Fluid KE gradient: disabled  (eps = 0.001, scale = 1, linear = 1, angular = 1)
  Fluid KE discrete gradient: disabled
  Impulse pair metric correction: disabled  (mode = pair discrete-gradient, cutoff = all pairs, inner/outer = 0/0, eps = 0.001, linear scale = 1, angular scale = 0)
  Impulse metric correction: disabled  (internal load constraint = disabled)
  Impulse variational defect probe: disabled
  Impulse quadratic pressure: disabled  (scale = 1)
  Added-mass stab:   disabled
  Exact BEM geometry: disabled
  Exact singular BEM: disabled
  Legacy singular SLP diagnostic: disabled
  Phi-dot blend:     0 (off)

  Solver guidance:
    - Strong coupling: use for stiff close-coupled runs; slower but more implicit.
    - Impulse scheme: use when impulse/momentum conservation or KE drift is the focus. Recommended.
    - Added-mass stab: use for higher mesh counts (ndiv > 3) to preserve stability - deprecated.
================================================
Solver starting - good luck!

Initial state:
  Body  1
    density:          4.000000
    shape axes ratio: (1.000000, 0.800000, 0.600000)
    initial KE ratio: 1.000000
    position:         (-4.000000, 0.000000, 0.000000)
    velocity:         (0.446797, -3.674778, 1.741442)
    angular velocity: (3.591161, 4.305453, 2.836381)
    orientation:      (w=0.447214, i=0.894427, j=0.000000, k=0.000000)
  Body  2
    density:          4.000000
    shape axes ratio: (1.000000, 0.800000, 0.600000)
    initial KE ratio: 1.000000
    position:         (4.000000, 0.000000, 0.000000)
    velocity:         (0.495451, -4.074944, 1.931076)
    angular velocity: (0.635877, 2.239392, -5.836026)
    orientation:      (w=0.707107, i=0.000000, j=0.707107, k=0.000000)

Preparing first step: implicit scheme, no bootstrap passes required.
First step may take longer than later steps.

First step completed in 2.939 s.

Step    20/200    10.0% | t 1.000 | ETA 2s | step 0.01s | KE 626.8324 | drift +0.02% | fluid 44.2167 | solid 582.6156
  Impulse FP iterations last/mean/max 8/8.40/9
Step    40/200    20.0% | t 2.000 | ETA 1s | step 0.01s | KE 627.0154 | drift +0.05% | fluid 37.8619 | solid 589.1535
  Impulse FP iterations last/mean/max 8/8.45/9
Step    60/200    30.0% | t 3.000 | ETA 1s | step 0.01s | KE 627.2151 | drift +0.08% | fluid 42.5431 | solid 584.6720
  Impulse FP iterations last/mean/max 8/8.38/9
Step    80/200    40.0% | t 4.000 | ETA 1s | step 0.01s | KE 627.6089 | drift +0.14% | fluid 40.9409 | solid 586.6680
  Impulse FP iterations last/mean/max 8/8.39/9
Step   100/200    50.0% | t 5.000 | ETA 1s | step 0.01s | KE 627.7467 | drift +0.16% | fluid 49.1855 | solid 578.5612
  Impulse FP iterations last/mean/max 9/8.43/9
Step   120/200    60.0% | t 6.000 | ETA 0s | step 0.01s | KE 628.4643 | drift +0.28% | fluid 49.4339 | solid 579.0304
  Impulse FP iterations last/mean/max 9/8.46/9
Step   140/200    70.0% | t 7.000 | ETA 0s | step 0.01s | KE 629.4978 | drift +0.44% | fluid 39.1327 | solid 590.3651
  Impulse FP iterations last/mean/max 9/8.46/9
Step   160/200    80.0% | t 8.000 | ETA 0s | step 0.01s | KE 629.7782 | drift +0.49% | fluid 51.9445 | solid 577.8337
  Impulse FP iterations last/mean/max 9/8.44/9
Step   180/200    90.0% | t 9.000 | ETA 0s | step 0.01s | KE 630.6820 | drift +0.63% | fluid 46.7728 | solid 583.9093
  Impulse FP iterations last/mean/max 8/8.46/9
Solver finished successfully - good job!
Results saved successfully.

================== Run summary ==================
  Bodies:            2
  Triangles / nodes: 64 / 132
  Timesteps:         200  (dt = 0.05)
  Simulated time:    0 -> 10
  First-step setup:  2.939 s
  Mean time/step:    0.0124 s  (excl. first step)
  Total wall time:   5.40s
  Impulse FP iters last/mean/max: 8 / 8.450 / 9
  Approx impulse solves/step:     8.455
  Impulse start cache hits/direct: 199 / 1
  Impulse global drift P/H:       3.631015e-10 / 2.033934e-2
  Impulse per-body max drift P/H: 5.905689e-10 / 2.369279e-3
  CPU cores:         256 available, 16 Rayon worker thread(s)
  Started:           2026-06-22 18:51:57
  Finished:          2026-06-22 18:52:03
  Output file:       /work/e643/e643/shared/multi_ellip/studies/multibody_convergence_sweep/runs/periodic_grid_ellipsoid_1_0p8_0p6_rho4_E1_sep8_nd1_dt0p05/multiple_body_complete.dat
================================================
