
================ Simulation setup ================
  Run label:         /work/e643/e643/shared/multi_ellip/studies/two_body_paper_sweeps/runs/ellipsoid_1_0p8_0p6/ellipsoid_1_0p8_0p6_rho1_E0p55_sep3_run01_impulse_noproj/
  Started:           2026-06-22 19:34:42
  Input file:        /work/e643/e643/shared/multi_ellip/studies/two_body_paper_sweeps/runs/ellipsoid_1_0p8_0p6/ellipsoid_1_0p8_0p6_rho1_E0p55_sep3_run01_impulse_noproj/input.txt
  Output file:       /work/e643/e643/shared/multi_ellip/studies/two_body_paper_sweeps/runs/ellipsoid_1_0p8_0p6/ellipsoid_1_0p8_0p6_rho1_E0p55_sep3_run01_impulse_noproj/multiple_body_complete.dat
  Bodies:            2
  Fluid density:     1
  Mesh:              ndiv 2 -> 256 triangles / 516 nodes
  Simulated time:    0 -> 100  (dt = 0.05, ~2000 steps)
  Output cadence:    every 1 step(s)
  Output rows:       ~2001
  Progress cadence:  every 100 step(s)
  CPU cores:         256 available, 8 Rayon worker thread(s)
  Strong coupling:   disabled
  Impulse scheme:    enabled
  Hamiltonian step:  disabled
  Hamiltonian midpt: disabled
  Variational step:  disabled
  Energy projection: disabled
  Projection particular metric: Euclidean
  Fluid KE gradient: disabled  (eps = 0.001, scale = 1, linear = 1, angular = 1)
  Fluid KE discrete gradient: disabled
  Impulse pair metric correction: disabled  (mode = pair discrete-gradient, cutoff = all pairs, inner/outer = 0/0, eps = 0.001, linear scale = 1, angular scale = 0)
  Impulse metric correction: disabled  (internal load constraint = disabled)
  Impulse variational defect probe: disabled
  Impulse quadratic pressure: disabled  (scale = 1)
  Added-mass stab:   disabled
  Exact BEM geometry: disabled
  Exact singular BEM: disabled
  Legacy singular SLP diagnostic: disabled
  Phi-dot blend:     0 (off)

  Solver guidance:
    - Strong coupling: use for stiff close-coupled runs; slower but more implicit.
    - Impulse scheme: use when impulse/momentum conservation or KE drift is the focus. Recommended.
    - Added-mass stab: use for higher mesh counts (ndiv > 3) to preserve stability - deprecated.
================================================
Solver starting - good luck!

Initial state:
  Body  1
    density:          1.000000
    shape axes ratio: (1.000000, 0.800000, 0.600000)
    initial KE ratio: 0.550000
    position:         (-1.500000, 0.000000, 0.000000)
    velocity:         (-0.316111, -2.689461, -4.888342)
    angular velocity: (-3.097026, 4.612716, 2.934229)
    orientation:      (w=0.447214, i=0.894427, j=0.000000, k=0.000000)
  Body  2
    density:          1.000000
    shape axes ratio: (1.000000, 0.800000, 0.600000)
    initial KE ratio: 0.550000
    position:         (1.500000, 0.000000, 0.000000)
    velocity:         (-0.301925, -2.568768, -4.668972)
    angular velocity: (5.040938, -1.271136, 3.528679)
    orientation:      (w=0.707107, i=0.000000, j=0.707107, k=0.000000)

Preparing first step: implicit scheme, no bootstrap passes required.
First step may take longer than later steps.

First step completed in 0.244 s.

Step   100/2000    5.0% | t 5.000 | ETA 5m 5s | step 0.15s | KE 331.8061 | drift +15.87% | fluid 92.1552 | solid 239.6509
  Impulse FP iterations last/mean/max 12/11.81/13
Step   200/2000   10.0% | t 10.000 | ETA 4m 50s | step 0.17s | KE 339.2111 | drift +18.46% | fluid 89.5192 | solid 249.6919
  Impulse FP iterations last/mean/max 12/11.82/13
Step   300/2000   15.0% | t 15.000 | ETA 4m 34s | step 0.17s | KE 337.9649 | drift +18.02% | fluid 88.6786 | solid 249.2863
  Impulse FP iterations last/mean/max 12/11.79/13
Step   400/2000   20.0% | t 20.000 | ETA 4m 17s | step 0.17s | KE 336.8648 | drift +17.64% | fluid 85.8394 | solid 251.0254
  Impulse FP iterations last/mean/max 12/11.75/13
Step   500/2000   25.0% | t 25.000 | ETA 3m 59s | step 0.16s | KE 336.1296 | drift +17.38% | fluid 92.8732 | solid 243.2564
  Impulse FP iterations last/mean/max 12/11.71/13
Step   600/2000   30.0% | t 30.000 | ETA 3m 43s | step 0.15s | KE 336.2721 | drift +17.43% | fluid 87.0468 | solid 249.2252
  Impulse FP iterations last/mean/max 11/11.67/13
Step   700/2000   35.0% | t 35.000 | ETA 3m 26s | step 0.16s | KE 335.7176 | drift +17.24% | fluid 91.6753 | solid 244.0423
  Impulse FP iterations last/mean/max 12/11.64/13
Step   800/2000   40.0% | t 40.000 | ETA 3m 10s | step 0.16s | KE 334.9784 | drift +16.98% | fluid 96.1108 | solid 238.8676
  Impulse FP iterations last/mean/max 11/11.63/13
Step   900/2000   45.0% | t 45.000 | ETA 2m 54s | step 0.14s | KE 336.3042 | drift +17.44% | fluid 86.5615 | solid 249.7427
  Impulse FP iterations last/mean/max 11/11.62/13
Step  1000/2000   50.0% | t 50.000 | ETA 2m 38s | step 0.17s | KE 336.2338 | drift +17.42% | fluid 89.8680 | solid 246.3658
  Impulse FP iterations last/mean/max 12/11.60/13
Step  1100/2000   55.0% | t 55.000 | ETA 2m 22s | step 0.15s | KE 335.9523 | drift +17.32% | fluid 91.8118 | solid 244.1404
  Impulse FP iterations last/mean/max 12/11.59/13
Step  1200/2000   60.0% | t 60.000 | ETA 2m 6s | step 0.15s | KE 336.1800 | drift +17.40% | fluid 86.5898 | solid 249.5902
  Impulse FP iterations last/mean/max 11/11.59/13
Step  1300/2000   65.0% | t 65.000 | ETA 1m 50s | step 0.16s | KE 334.7698 | drift +16.90% | fluid 96.1189 | solid 238.6509
  Impulse FP iterations last/mean/max 12/11.59/13
Step  1400/2000   70.0% | t 70.000 | ETA 1m 34s | step 0.16s | KE 335.2174 | drift +17.06% | fluid 93.5750 | solid 241.6424
  Impulse FP iterations last/mean/max 12/11.58/13
Step  1500/2000   75.0% | t 75.000 | ETA 1m 18s | step 0.12s | KE 335.9306 | drift +17.31% | fluid 85.6412 | solid 250.2894
  Impulse FP iterations last/mean/max 11/11.57/13
Step  1600/2000   80.0% | t 80.000 | ETA 1m 1s | step 0.16s | KE 335.4519 | drift +17.14% | fluid 93.4907 | solid 241.9612
  Impulse FP iterations last/mean/max 12/11.57/13
Step  1700/2000   85.0% | t 85.000 | ETA 46s | step 0.15s | KE 335.7175 | drift +17.24% | fluid 86.2018 | solid 249.5157
  Impulse FP iterations last/mean/max 11/11.56/13
Step  1800/2000   90.0% | t 90.000 | ETA 30s | step 0.16s | KE 336.4757 | drift +17.50% | fluid 88.7712 | solid 247.7045
  Impulse FP iterations last/mean/max 12/11.56/13
Step  1900/2000   95.0% | t 95.000 | ETA 15s | step 0.14s | KE 336.0298 | drift +17.34% | fluid 83.1331 | solid 252.8967
  Impulse FP iterations last/mean/max 11/11.55/13
Solver finished successfully - good job!
Results saved successfully.

================== Run summary ==================
  Bodies:            2
  Triangles / nodes: 256 / 516
  Timesteps:         2000  (dt = 0.05)
  Simulated time:    0 -> 100
  First-step setup:  0.244 s
  Mean time/step:    0.1533 s  (excl. first step)
  Total wall time:   5m 6s
  Impulse FP iters last/mean/max: 12 / 11.547 / 13
  Approx impulse solves/step:     11.548
  Impulse start cache hits/direct: 1999 / 1
  Impulse global drift P/H:       2.766658e-8 / 9.379511e-2
  Impulse per-body max drift P/H: 4.823554e-8 / 5.020030e-2
  CPU cores:         256 available, 8 Rayon worker thread(s)
  Started:           2026-06-22 19:34:42
  Finished:          2026-06-22 19:39:49
  Output file:       /work/e643/e643/shared/multi_ellip/studies/two_body_paper_sweeps/runs/ellipsoid_1_0p8_0p6/ellipsoid_1_0p8_0p6_rho1_E0p55_sep3_run01_impulse_noproj/multiple_body_complete.dat
================================================
