
================ Simulation setup ================
  Run label:         /work/e643/e643/shared/multi_ellip/studies/two_body_paper_sweeps/runs/ellipsoid_1_0p8_0p6/ellipsoid_1_0p8_0p6_rho4_E1p5_sep8_run01_impulse_noproj/
  Started:           2026-06-22 19:30:41
  Input file:        /work/e643/e643/shared/multi_ellip/studies/two_body_paper_sweeps/runs/ellipsoid_1_0p8_0p6/ellipsoid_1_0p8_0p6_rho4_E1p5_sep8_run01_impulse_noproj/input.txt
  Output file:       /work/e643/e643/shared/multi_ellip/studies/two_body_paper_sweeps/runs/ellipsoid_1_0p8_0p6/ellipsoid_1_0p8_0p6_rho4_E1p5_sep8_run01_impulse_noproj/multiple_body_complete.dat
  Bodies:            2
  Fluid density:     1
  Mesh:              ndiv 2 -> 256 triangles / 516 nodes
  Simulated time:    0 -> 100  (dt = 0.05, ~2000 steps)
  Output cadence:    every 1 step(s)
  Output rows:       ~2001
  Progress cadence:  every 100 step(s)
  CPU cores:         256 available, 8 Rayon worker thread(s)
  Strong coupling:   disabled
  Impulse scheme:    enabled
  Hamiltonian step:  disabled
  Hamiltonian midpt: disabled
  Variational step:  disabled
  Energy projection: disabled
  Projection particular metric: Euclidean
  Fluid KE gradient: disabled  (eps = 0.001, scale = 1, linear = 1, angular = 1)
  Fluid KE discrete gradient: disabled
  Impulse pair metric correction: disabled  (mode = pair discrete-gradient, cutoff = all pairs, inner/outer = 0/0, eps = 0.001, linear scale = 1, angular scale = 0)
  Impulse metric correction: disabled  (internal load constraint = disabled)
  Impulse variational defect probe: disabled
  Impulse quadratic pressure: disabled  (scale = 1)
  Added-mass stab:   disabled
  Exact BEM geometry: disabled
  Exact singular BEM: disabled
  Legacy singular SLP diagnostic: disabled
  Phi-dot blend:     0 (off)

  Solver guidance:
    - Strong coupling: use for stiff close-coupled runs; slower but more implicit.
    - Impulse scheme: use when impulse/momentum conservation or KE drift is the focus. Recommended.
    - Added-mass stab: use for higher mesh counts (ndiv > 3) to preserve stability - deprecated.
================================================
Solver starting - good luck!

Initial state:
  Body  1
    density:          4.000000
    shape axes ratio: (1.000000, 0.800000, 0.600000)
    initial KE ratio: 1.500000
    position:         (-4.000000, 0.000000, 0.000000)
    velocity:         (-3.154626, -0.378404, 0.912560)
    angular velocity: (-4.339537, 2.957283, -3.449828)
    orientation:      (w=0.447214, i=0.894427, j=0.000000, k=0.000000)
  Body  2
    density:          4.000000
    shape axes ratio: (1.000000, 0.800000, 0.600000)
    initial KE ratio: 1.500000
    position:         (4.000000, 0.000000, 0.000000)
    velocity:         (-3.101612, -0.372044, 0.897224)
    angular velocity: (3.944120, 4.713052, -1.307468)
    orientation:      (w=0.707107, i=0.000000, j=0.707107, k=0.000000)

Preparing first step: implicit scheme, no bootstrap passes required.
First step may take longer than later steps.

First step completed in 0.222 s.

Step   100/2000    5.0% | t 5.000 | ETA 3m 33s | step 0.13s | KE 498.8949 | drift -0.29% | fluid 32.3152 | solid 466.5797
  Impulse FP iterations last/mean/max 9/8.54/9
Step   200/2000   10.0% | t 10.000 | ETA 3m 27s | step 0.12s | KE 498.4521 | drift -0.38% | fluid 39.1995 | solid 459.2526
  Impulse FP iterations last/mean/max 9/8.59/9
Step   300/2000   15.0% | t 15.000 | ETA 3m 17s | step 0.13s | KE 501.4763 | drift +0.23% | fluid 39.6672 | solid 461.8091
  Impulse FP iterations last/mean/max 9/8.61/9
Step   400/2000   20.0% | t 20.000 | ETA 3m 6s | step 0.13s | KE 508.3842 | drift +1.61% | fluid 33.9053 | solid 474.4789
  Impulse FP iterations last/mean/max 9/8.65/9
Step   500/2000   25.0% | t 25.000 | ETA 2m 56s | step 0.11s | KE 535.0082 | drift +6.93% | fluid 30.1375 | solid 504.8707
  Impulse FP iterations last/mean/max 8/8.69/9
Step   600/2000   30.0% | t 30.000 | ETA 2m 46s | step 0.13s | KE 629.7260 | drift +25.86% | fluid 38.0379 | solid 591.6881
  Impulse FP iterations last/mean/max 9/8.74/10
Step   700/2000   35.0% | t 35.000 | ETA 2m 36s | step 0.13s | KE 672.1511 | drift +34.34% | fluid 41.1952 | solid 630.9559
  Impulse FP iterations last/mean/max 9/8.78/10
Step   800/2000   40.0% | t 40.000 | ETA 2m 24s | step 0.11s | KE 663.2424 | drift +32.56% | fluid 36.9752 | solid 626.2672
  Impulse FP iterations last/mean/max 9/8.80/10
Step   900/2000   45.0% | t 45.000 | ETA 2m 12s | step 0.12s | KE 659.1729 | drift +31.74% | fluid 38.8775 | solid 620.2953
  Impulse FP iterations last/mean/max 9/8.80/10
Step  1000/2000   50.0% | t 50.000 | ETA 2m 0s | step 0.13s | KE 656.7588 | drift +31.26% | fluid 35.7390 | solid 621.0198
  Impulse FP iterations last/mean/max 9/8.81/10
Step  1100/2000   55.0% | t 55.000 | ETA 1m 48s | step 0.13s | KE 652.3826 | drift +30.39% | fluid 38.1956 | solid 614.1870
  Impulse FP iterations last/mean/max 9/8.81/10
Step  1200/2000   60.0% | t 60.000 | ETA 1m 36s | step 0.12s | KE 648.9715 | drift +29.70% | fluid 40.6645 | solid 608.3070
  Impulse FP iterations last/mean/max 9/8.81/10
Step  1300/2000   65.0% | t 65.000 | ETA 1m 24s | step 0.10s | KE 647.7823 | drift +29.47% | fluid 35.5172 | solid 612.2651
  Impulse FP iterations last/mean/max 8/8.80/10
Step  1400/2000   70.0% | t 70.000 | ETA 1m 12s | step 0.12s | KE 647.1500 | drift +29.34% | fluid 42.0364 | solid 605.1136
  Impulse FP iterations last/mean/max 9/8.80/10
Step  1500/2000   75.0% | t 75.000 | ETA 1m 0s | step 0.12s | KE 647.9626 | drift +29.50% | fluid 32.9877 | solid 614.9750
  Impulse FP iterations last/mean/max 9/8.79/10
Step  1600/2000   80.0% | t 80.000 | ETA 48s | step 0.11s | KE 648.0857 | drift +29.53% | fluid 34.6428 | solid 613.4428
  Impulse FP iterations last/mean/max 8/8.79/10
Step  1700/2000   85.0% | t 85.000 | ETA 36s | step 0.12s | KE 647.8611 | drift +29.48% | fluid 38.2262 | solid 609.6349
  Impulse FP iterations last/mean/max 9/8.78/10
Step  1800/2000   90.0% | t 90.000 | ETA 23s | step 0.11s | KE 647.3993 | drift +29.39% | fluid 43.1744 | solid 604.2249
  Impulse FP iterations last/mean/max 8/8.78/10
Step  1900/2000   95.0% | t 95.000 | ETA 11s | step 0.09s | KE 648.0089 | drift +29.51% | fluid 34.4818 | solid 613.5272
  Impulse FP iterations last/mean/max 8/8.78/10
Solver finished successfully - good job!
Results saved successfully.

================== Run summary ==================
  Bodies:            2
  Triangles / nodes: 256 / 516
  Timesteps:         2000  (dt = 0.05)
  Simulated time:    0 -> 100
  First-step setup:  0.222 s
  Mean time/step:    0.1182 s  (excl. first step)
  Total wall time:   3m 56s
  Impulse FP iters last/mean/max: 9 / 8.773 / 10
  Approx impulse solves/step:     8.773
  Impulse start cache hits/direct: 1999 / 1
  Impulse global drift P/H:       3.172513e-9 / 3.476297e-2
  Impulse per-body max drift P/H: 4.241328e-9 / 2.171076e-2
  CPU cores:         256 available, 8 Rayon worker thread(s)
  Started:           2026-06-22 19:30:41
  Finished:          2026-06-22 19:34:38
  Output file:       /work/e643/e643/shared/multi_ellip/studies/two_body_paper_sweeps/runs/ellipsoid_1_0p8_0p6/ellipsoid_1_0p8_0p6_rho4_E1p5_sep8_run01_impulse_noproj/multiple_body_complete.dat
================================================
