
================ Simulation setup ================
  Run label:         /work/e643/e643/shared/multi_ellip/studies/two_body_paper_sweeps/runs/spheroid_1_0p7_0p7/spheroid_1_0p7_0p7_rho4_E30_sep5_run05_impulse_noproj/
  Started:           2026-06-24 01:29:34
  Input file:        /work/e643/e643/shared/multi_ellip/studies/two_body_paper_sweeps/runs/spheroid_1_0p7_0p7/spheroid_1_0p7_0p7_rho4_E30_sep5_run05_impulse_noproj/input.txt
  Output file:       /work/e643/e643/shared/multi_ellip/studies/two_body_paper_sweeps/runs/spheroid_1_0p7_0p7/spheroid_1_0p7_0p7_rho4_E30_sep5_run05_impulse_noproj/multiple_body_complete.dat
  Bodies:            2
  Fluid density:     1
  Mesh:              ndiv 2 -> 256 triangles / 516 nodes
  Simulated time:    0 -> 100  (dt = 0.05, ~2000 steps)
  Output cadence:    every 1 step(s)
  Output rows:       ~2001
  Progress cadence:  every 100 step(s)
  CPU cores:         256 available, 8 Rayon worker thread(s)
  Strong coupling:   disabled
  Impulse scheme:    enabled
  Hamiltonian step:  disabled
  Hamiltonian midpt: disabled
  Variational step:  disabled
  Energy projection: disabled
  Projection particular metric: Euclidean
  Fluid KE gradient: disabled  (eps = 0.001, scale = 1, linear = 1, angular = 1)
  Fluid KE discrete gradient: disabled
  Impulse pair metric correction: disabled  (mode = pair discrete-gradient, cutoff = all pairs, inner/outer = 0/0, eps = 0.001, linear scale = 1, angular scale = 0)
  Impulse metric correction: disabled  (internal load constraint = disabled)
  Impulse variational defect probe: disabled
  Impulse quadratic pressure: disabled  (scale = 1)
  Added-mass stab:   disabled
  Exact BEM geometry: disabled
  Exact singular BEM: disabled
  Legacy singular SLP diagnostic: disabled
  Phi-dot blend:     0 (off)

  Solver guidance:
    - Strong coupling: use for stiff close-coupled runs; slower but more implicit.
    - Impulse scheme: use when impulse/momentum conservation or KE drift is the focus. Recommended.
    - Added-mass stab: use for higher mesh counts (ndiv > 3) to preserve stability - deprecated.
================================================
Solver starting - good luck!

Initial state:
  Body  1
    density:          4.000000
    shape axes ratio: (1.000000, 0.700000, 0.700000)
    initial KE ratio: 30.000000
    position:         (-2.500000, 0.000000, 0.000000)
    velocity:         (-0.094240, 0.664357, 0.259756)
    angular velocity: (-4.549387, -1.430300, 4.090934)
    orientation:      (w=-0.504390, i=-0.167196, j=-0.488509, k=0.692095)
  Body  2
    density:          4.000000
    shape axes ratio: (1.000000, 0.700000, 0.700000)
    initial KE ratio: 30.000000
    position:         (2.500000, 0.000000, 0.000000)
    velocity:         (-0.094063, 0.663111, 0.259269)
    angular velocity: (4.588196, -3.159215, 2.906240)
    orientation:      (w=0.367404, i=-0.628858, j=-0.442631, k=0.523096)

Preparing first step: implicit scheme, no bootstrap passes required.
First step may take longer than later steps.

First step completed in 0.245 s.

Step   100/2000    5.0% | t 5.000 | ETA 3m 20s | step 0.11s | KE 314.1063 | drift +0.09% | fluid 6.6147 | solid 307.4916
  Impulse FP iterations last/mean/max 8/7.80/8
Step   200/2000   10.0% | t 10.000 | ETA 3m 17s | step 0.11s | KE 314.3697 | drift +0.17% | fluid 6.5849 | solid 307.7849
  Impulse FP iterations last/mean/max 8/7.82/8
Step   300/2000   15.0% | t 15.000 | ETA 3m 8s | step 0.12s | KE 314.6347 | drift +0.26% | fluid 6.6407 | solid 307.9940
  Impulse FP iterations last/mean/max 8/7.83/8
Step   400/2000   20.0% | t 20.000 | ETA 2m 58s | step 0.12s | KE 314.8794 | drift +0.33% | fluid 6.6167 | solid 308.2627
  Impulse FP iterations last/mean/max 8/7.83/8
Step   500/2000   25.0% | t 25.000 | ETA 2m 47s | step 0.11s | KE 315.1245 | drift +0.41% | fluid 6.6311 | solid 308.4934
  Impulse FP iterations last/mean/max 8/7.84/8
Step   600/2000   30.0% | t 30.000 | ETA 2m 36s | step 0.11s | KE 315.3465 | drift +0.48% | fluid 6.6119 | solid 308.7346
  Impulse FP iterations last/mean/max 8/7.84/8
Step   700/2000   35.0% | t 35.000 | ETA 2m 25s | step 0.12s | KE 315.5643 | drift +0.55% | fluid 6.5925 | solid 308.9718
  Impulse FP iterations last/mean/max 8/7.84/8
Step   800/2000   40.0% | t 40.000 | ETA 2m 14s | step 0.12s | KE 315.7619 | drift +0.61% | fluid 6.5807 | solid 309.1813
  Impulse FP iterations last/mean/max 8/7.84/8
Step   900/2000   45.0% | t 45.000 | ETA 2m 3s | step 0.12s | KE 315.9497 | drift +0.67% | fluid 6.5391 | solid 309.4105
  Impulse FP iterations last/mean/max 8/7.84/8
Step  1000/2000   50.0% | t 50.000 | ETA 1m 51s | step 0.11s | KE 316.1217 | drift +0.73% | fluid 6.5427 | solid 309.5790
  Impulse FP iterations last/mean/max 8/7.84/8
Step  1100/2000   55.0% | t 55.000 | ETA 1m 40s | step 0.12s | KE 316.2805 | drift +0.78% | fluid 6.4940 | solid 309.7865
  Impulse FP iterations last/mean/max 8/7.84/8
Step  1200/2000   60.0% | t 60.000 | ETA 1m 29s | step 0.12s | KE 316.4263 | drift +0.83% | fluid 6.5256 | solid 309.9007
  Impulse FP iterations last/mean/max 8/7.84/8
Step  1300/2000   65.0% | t 65.000 | ETA 1m 18s | step 0.11s | KE 316.5598 | drift +0.87% | fluid 6.4844 | solid 310.0754
  Impulse FP iterations last/mean/max 8/7.84/8
Step  1400/2000   70.0% | t 70.000 | ETA 1m 7s | step 0.10s | KE 316.6802 | drift +0.91% | fluid 6.5538 | solid 310.1263
  Impulse FP iterations last/mean/max 8/7.84/8
Step  1500/2000   75.0% | t 75.000 | ETA 56s | step 0.11s | KE 316.7932 | drift +0.94% | fluid 6.5256 | solid 310.2676
  Impulse FP iterations last/mean/max 8/7.84/8
Step  1600/2000   80.0% | t 80.000 | ETA 44s | step 0.12s | KE 316.8917 | drift +0.97% | fluid 6.6278 | solid 310.2638
  Impulse FP iterations last/mean/max 8/7.83/8
Step  1700/2000   85.0% | t 85.000 | ETA 33s | step 0.12s | KE 316.9886 | drift +1.01% | fluid 6.5992 | solid 310.3893
  Impulse FP iterations last/mean/max 8/7.83/8
Step  1800/2000   90.0% | t 90.000 | ETA 22s | step 0.10s | KE 317.0709 | drift +1.03% | fluid 6.7078 | solid 310.3631
  Impulse FP iterations last/mean/max 7/7.83/8
Step  1900/2000   95.0% | t 95.000 | ETA 11s | step 0.09s | KE 317.1544 | drift +1.06% | fluid 6.6489 | solid 310.5055
  Impulse FP iterations last/mean/max 7/7.83/8
Solver finished successfully - good job!
Results saved successfully.

================== Run summary ==================
  Bodies:            2
  Triangles / nodes: 256 / 516
  Timesteps:         2000  (dt = 0.05)
  Simulated time:    0 -> 100
  First-step setup:  0.245 s
  Mean time/step:    0.1108 s  (excl. first step)
  Total wall time:   3m 41s
  Impulse FP iters last/mean/max: 7 / 7.819 / 8
  Approx impulse solves/step:     7.820
  Impulse start cache hits/direct: 1999 / 1
  Impulse global drift P/H:       1.823745e-8 / 3.185740e-3
  Impulse per-body max drift P/H: 3.819594e-8 / 2.599473e-3
  CPU cores:         256 available, 8 Rayon worker thread(s)
  Started:           2026-06-24 01:29:34
  Finished:          2026-06-24 01:33:16
  Output file:       /work/e643/e643/shared/multi_ellip/studies/two_body_paper_sweeps/runs/spheroid_1_0p7_0p7/spheroid_1_0p7_0p7_rho4_E30_sep5_run05_impulse_noproj/multiple_body_complete.dat
================================================
