
================ Simulation setup ================
  Run label:         /work/e643/e643/shared/multi_ellip/studies/two_body_paper_sweeps/runs/ellipsoid_1_0p8_0p6/ellipsoid_1_0p8_0p6_rho0p03_E11_sep5_run01_impulse_noproj/
  Started:           2026-06-22 20:15:17
  Input file:        /work/e643/e643/shared/multi_ellip/studies/two_body_paper_sweeps/runs/ellipsoid_1_0p8_0p6/ellipsoid_1_0p8_0p6_rho0p03_E11_sep5_run01_impulse_noproj/input.txt
  Output file:       /work/e643/e643/shared/multi_ellip/studies/two_body_paper_sweeps/runs/ellipsoid_1_0p8_0p6/ellipsoid_1_0p8_0p6_rho0p03_E11_sep5_run01_impulse_noproj/multiple_body_complete.dat
  Bodies:            2
  Fluid density:     1
  Mesh:              ndiv 2 -> 256 triangles / 516 nodes
  Simulated time:    0 -> 100  (dt = 0.05, ~2000 steps)
  Output cadence:    every 1 step(s)
  Output rows:       ~2001
  Progress cadence:  every 100 step(s)
  CPU cores:         256 available, 8 Rayon worker thread(s)
  Strong coupling:   disabled
  Impulse scheme:    enabled
  Hamiltonian step:  disabled
  Hamiltonian midpt: disabled
  Variational step:  disabled
  Energy projection: disabled
  Projection particular metric: Euclidean
  Fluid KE gradient: disabled  (eps = 0.001, scale = 1, linear = 1, angular = 1)
  Fluid KE discrete gradient: disabled
  Impulse pair metric correction: disabled  (mode = pair discrete-gradient, cutoff = all pairs, inner/outer = 0/0, eps = 0.001, linear scale = 1, angular scale = 0)
  Impulse metric correction: disabled  (internal load constraint = disabled)
  Impulse variational defect probe: disabled
  Impulse quadratic pressure: disabled  (scale = 1)
  Added-mass stab:   disabled
  Exact BEM geometry: disabled
  Exact singular BEM: disabled
  Legacy singular SLP diagnostic: disabled
  Phi-dot blend:     0 (off)

  Solver guidance:
    - Strong coupling: use for stiff close-coupled runs; slower but more implicit.
    - Impulse scheme: use when impulse/momentum conservation or KE drift is the focus. Recommended.
    - Added-mass stab: use for higher mesh counts (ndiv > 3) to preserve stability - deprecated.
================================================
Solver starting - good luck!

Initial state:
  Body  1
    density:          0.030000
    shape axes ratio: (1.000000, 0.800000, 0.600000)
    initial KE ratio: 11.000000
    position:         (-2.500000, 0.000000, 0.000000)
    velocity:         (0.142332, 1.193657, 0.527834)
    angular velocity: (-2.833600, -2.304744, -5.112464)
    orientation:      (w=0.447214, i=0.894427, j=0.000000, k=0.000000)
  Body  2
    density:          0.030000
    shape axes ratio: (1.000000, 0.800000, 0.600000)
    initial KE ratio: 11.000000
    position:         (2.500000, 0.000000, 0.000000)
    velocity:         (0.140658, 1.179618, 0.521626)
    angular velocity: (3.363605, -1.630408, 5.050381)
    orientation:      (w=0.707107, i=0.000000, j=0.707107, k=0.000000)

Preparing first step: implicit scheme, no bootstrap passes required.
First step may take longer than later steps.

First step completed in 0.505 s.

Step   100/2000    5.0% | t 5.000 | ETA 10m 36s | step 0.38s | KE 12.1583 | drift +4.99% | fluid 9.7320 | solid 2.4263
  Impulse FP iterations last/mean/max 29/28.93/30
Step   200/2000   10.0% | t 10.000 | ETA 10m 45s | step 0.37s | KE 12.4136 | drift +7.19% | fluid 10.1206 | solid 2.2930
  Impulse FP iterations last/mean/max 30/28.89/30
Step   300/2000   15.0% | t 15.000 | ETA 10m 27s | step 0.40s | KE 12.3147 | drift +6.34% | fluid 9.5770 | solid 2.7377
  Impulse FP iterations last/mean/max 30/29.03/30
Step   400/2000   20.0% | t 20.000 | ETA 10m 0s | step 0.42s | KE 12.2649 | drift +5.91% | fluid 9.9015 | solid 2.3634
  Impulse FP iterations last/mean/max 30/29.14/30
Step   500/2000   25.0% | t 25.000 | ETA 9m 27s | step 0.37s | KE 12.3551 | drift +6.69% | fluid 10.3832 | solid 1.9719
  Impulse FP iterations last/mean/max 30/29.14/30
Step   600/2000   30.0% | t 30.000 | ETA 8m 51s | step 0.35s | KE 12.2547 | drift +5.82% | fluid 10.3196 | solid 1.9351
  Impulse FP iterations last/mean/max 26/29.15/30
Step   700/2000   35.0% | t 35.000 | ETA 8m 14s | step 0.37s | KE 12.2023 | drift +5.37% | fluid 9.7451 | solid 2.4572
  Impulse FP iterations last/mean/max 30/29.14/30
Step   800/2000   40.0% | t 40.000 | ETA 7m 35s | step 0.36s | KE 12.2571 | drift +5.84% | fluid 10.5562 | solid 1.7009
  Impulse FP iterations last/mean/max 27/29.13/30
Step   900/2000   45.0% | t 45.000 | ETA 6m 56s | step 0.35s | KE 12.1406 | drift +4.84% | fluid 10.0609 | solid 2.0797
  Impulse FP iterations last/mean/max 30/29.10/30
Step  1000/2000   50.0% | t 50.000 | ETA 6m 18s | step 0.34s | KE 12.0866 | drift +4.37% | fluid 9.5072 | solid 2.5794
  Impulse FP iterations last/mean/max 28/29.07/30
Step  1100/2000   55.0% | t 55.000 | ETA 5m 40s | step 0.31s | KE 12.1330 | drift +4.77% | fluid 9.3752 | solid 2.7578
  Impulse FP iterations last/mean/max 24/29.07/30
Step  1200/2000   60.0% | t 60.000 | ETA 5m 2s | step 0.38s | KE 12.0786 | drift +4.30% | fluid 9.3245 | solid 2.7541
  Impulse FP iterations last/mean/max 30/29.09/30
Step  1300/2000   65.0% | t 65.000 | ETA 4m 23s | step 0.38s | KE 12.0506 | drift +4.06% | fluid 9.9726 | solid 2.0780
  Impulse FP iterations last/mean/max 30/29.08/30
Step  1400/2000   70.0% | t 70.000 | ETA 3m 44s | step 0.33s | KE 12.0432 | drift +3.99% | fluid 10.1113 | solid 1.9319
  Impulse FP iterations last/mean/max 30/29.08/30
Step  1500/2000   75.0% | t 75.000 | ETA 3m 5s | step 0.32s | KE 12.0730 | drift +4.25% | fluid 10.4848 | solid 1.5882
  Impulse FP iterations last/mean/max 30/29.09/30
Step  1600/2000   80.0% | t 80.000 | ETA 2m 27s | step 0.33s | KE 12.1126 | drift +4.59% | fluid 10.1757 | solid 1.9369
  Impulse FP iterations last/mean/max 30/29.09/30
Step  1700/2000   85.0% | t 85.000 | ETA 1m 50s | step 0.33s | KE 12.0826 | drift +4.33% | fluid 9.9671 | solid 2.1155
  Impulse FP iterations last/mean/max 30/29.10/30
Step  1800/2000   90.0% | t 90.000 | ETA 1m 13s | step 0.37s | KE 12.1179 | drift +4.64% | fluid 9.8375 | solid 2.2804
  Impulse FP iterations last/mean/max 29/29.12/30
Step  1900/2000   95.0% | t 95.000 | ETA 36s | step 0.39s | KE 12.0345 | drift +3.92% | fluid 9.9796 | solid 2.0549
  Impulse FP iterations last/mean/max 30/29.14/30
Solver finished successfully - good job!
Results saved successfully.

================== Run summary ==================
  Bodies:            2
  Triangles / nodes: 256 / 516
  Timesteps:         2000  (dt = 0.05)
  Simulated time:    0 -> 100
  First-step setup:  0.505 s
  Mean time/step:    0.3688 s  (excl. first step)
  Total wall time:   12m 17s
  Impulse FP iters last/mean/max: 30 / 29.142 / 30
  Approx impulse solves/step:     29.143
  Impulse start cache hits/direct: 1999 / 1
  Impulse global drift P/H:       4.525881e-7 / 7.157888e-3
  Impulse per-body max drift P/H: 7.370731e-7 / 3.069165e-3
  CPU cores:         256 available, 8 Rayon worker thread(s)
  Started:           2026-06-22 20:15:17
  Finished:          2026-06-22 20:27:36
  Output file:       /work/e643/e643/shared/multi_ellip/studies/two_body_paper_sweeps/runs/ellipsoid_1_0p8_0p6/ellipsoid_1_0p8_0p6_rho0p03_E11_sep5_run01_impulse_noproj/multiple_body_complete.dat
================================================
