
================ Simulation setup ================
  Run label:         /work/e643/e643/shared/multi_ellip/studies/two_body_paper_sweeps/runs/spheroid_1_0p7_0p7/spheroid_1_0p7_0p7_rho0p3_E0p2_sep5_run03_impulse_noproj/
  Started:           2026-06-24 01:39:27
  Input file:        /work/e643/e643/shared/multi_ellip/studies/two_body_paper_sweeps/runs/spheroid_1_0p7_0p7/spheroid_1_0p7_0p7_rho0p3_E0p2_sep5_run03_impulse_noproj/input.txt
  Output file:       /work/e643/e643/shared/multi_ellip/studies/two_body_paper_sweeps/runs/spheroid_1_0p7_0p7/spheroid_1_0p7_0p7_rho0p3_E0p2_sep5_run03_impulse_noproj/multiple_body_complete.dat
  Bodies:            2
  Fluid density:     1
  Mesh:              ndiv 2 -> 256 triangles / 516 nodes
  Simulated time:    0 -> 100  (dt = 0.05, ~2000 steps)
  Output cadence:    every 1 step(s)
  Output rows:       ~2001
  Progress cadence:  every 100 step(s)
  CPU cores:         256 available, 8 Rayon worker thread(s)
  Strong coupling:   disabled
  Impulse scheme:    enabled
  Hamiltonian step:  disabled
  Hamiltonian midpt: disabled
  Variational step:  disabled
  Energy projection: disabled
  Projection particular metric: Euclidean
  Fluid KE gradient: disabled  (eps = 0.001, scale = 1, linear = 1, angular = 1)
  Fluid KE discrete gradient: disabled
  Impulse pair metric correction: disabled  (mode = pair discrete-gradient, cutoff = all pairs, inner/outer = 0/0, eps = 0.001, linear scale = 1, angular scale = 0)
  Impulse metric correction: disabled  (internal load constraint = disabled)
  Impulse variational defect probe: disabled
  Impulse quadratic pressure: disabled  (scale = 1)
  Added-mass stab:   disabled
  Exact BEM geometry: disabled
  Exact singular BEM: disabled
  Legacy singular SLP diagnostic: disabled
  Phi-dot blend:     0 (off)

  Solver guidance:
    - Strong coupling: use for stiff close-coupled runs; slower but more implicit.
    - Impulse scheme: use when impulse/momentum conservation or KE drift is the focus. Recommended.
    - Added-mass stab: use for higher mesh counts (ndiv > 3) to preserve stability - deprecated.
================================================
Solver starting - good luck!

Initial state:
  Body  1
    density:          0.300000
    shape axes ratio: (1.000000, 0.700000, 0.700000)
    initial KE ratio: 0.200000
    position:         (-2.500000, 0.000000, 0.000000)
    velocity:         (7.147350, -6.046562, -0.591025)
    angular velocity: (-2.846107, 3.846317, -4.072339)
    orientation:      (w=0.531267, i=-0.149705, j=0.025941, k=-0.833469)
  Body  2
    density:          0.300000
    shape axes ratio: (1.000000, 0.700000, 0.700000)
    initial KE ratio: 0.200000
    position:         (2.500000, 0.000000, 0.000000)
    velocity:         (7.409865, -6.268646, -0.612733)
    angular velocity: (-0.279540, -5.109298, -3.646279)
    orientation:      (w=-0.788698, i=-0.537371, j=-0.040091, k=-0.295940)

Preparing first step: implicit scheme, no bootstrap passes required.
First step may take longer than later steps.

First step completed in 0.413 s.

Step   100/2000    5.0% | t 5.000 | ETA 5m 12s | step 0.16s | KE 378.6770 | drift -1.20% | fluid 247.0742 | solid 131.6028
  Impulse FP iterations last/mean/max 13/12.88/14
Step   200/2000   10.0% | t 10.000 | ETA 4m 59s | step 0.16s | KE 376.9465 | drift -1.65% | fluid 246.5292 | solid 130.4172
  Impulse FP iterations last/mean/max 12/12.88/14
Step   300/2000   15.0% | t 15.000 | ETA 4m 48s | step 0.17s | KE 377.3700 | drift -1.54% | fluid 246.8221 | solid 130.5479
  Impulse FP iterations last/mean/max 12/12.85/14
Step   400/2000   20.0% | t 20.000 | ETA 4m 36s | step 0.18s | KE 377.0225 | drift -1.63% | fluid 246.5773 | solid 130.4452
  Impulse FP iterations last/mean/max 13/12.84/14
Step   500/2000   25.0% | t 25.000 | ETA 4m 21s | step 0.18s | KE 377.3453 | drift -1.55% | fluid 246.7454 | solid 130.5999
  Impulse FP iterations last/mean/max 13/12.83/14
Step   600/2000   30.0% | t 30.000 | ETA 4m 5s | step 0.20s | KE 377.3085 | drift -1.55% | fluid 246.6712 | solid 130.6373
  Impulse FP iterations last/mean/max 14/12.81/14
Step   700/2000   35.0% | t 35.000 | ETA 3m 49s | step 0.18s | KE 377.0829 | drift -1.61% | fluid 246.6971 | solid 130.3858
  Impulse FP iterations last/mean/max 13/12.82/14
Step   800/2000   40.0% | t 40.000 | ETA 3m 32s | step 0.18s | KE 377.1526 | drift -1.60% | fluid 246.6787 | solid 130.4740
  Impulse FP iterations last/mean/max 12/12.81/14
Step   900/2000   45.0% | t 45.000 | ETA 3m 15s | step 0.19s | KE 377.5276 | drift -1.50% | fluid 246.7332 | solid 130.7944
  Impulse FP iterations last/mean/max 13/12.82/14
Step  1000/2000   50.0% | t 50.000 | ETA 2m 58s | step 0.16s | KE 377.0883 | drift -1.61% | fluid 246.6138 | solid 130.4745
  Impulse FP iterations last/mean/max 12/12.82/14
Step  1100/2000   55.0% | t 55.000 | ETA 2m 40s | step 0.18s | KE 377.1055 | drift -1.61% | fluid 246.7848 | solid 130.3207
  Impulse FP iterations last/mean/max 13/12.82/14
Step  1200/2000   60.0% | t 60.000 | ETA 2m 23s | step 0.20s | KE 377.3744 | drift -1.54% | fluid 246.6571 | solid 130.7173
  Impulse FP iterations last/mean/max 13/12.81/14
Step  1300/2000   65.0% | t 65.000 | ETA 2m 5s | step 0.18s | KE 377.3352 | drift -1.55% | fluid 246.6366 | solid 130.6986
  Impulse FP iterations last/mean/max 13/12.81/14
Step  1400/2000   70.0% | t 70.000 | ETA 1m 47s | step 0.19s | KE 377.1190 | drift -1.60% | fluid 246.8072 | solid 130.3118
  Impulse FP iterations last/mean/max 13/12.81/14
Step  1500/2000   75.0% | t 75.000 | ETA 1m 28s | step 0.14s | KE 377.0673 | drift -1.62% | fluid 246.5878 | solid 130.4796
  Impulse FP iterations last/mean/max 13/12.81/14
Step  1600/2000   80.0% | t 80.000 | ETA 1m 9s | step 0.11s | KE 377.5646 | drift -1.49% | fluid 246.7549 | solid 130.8096
  Impulse FP iterations last/mean/max 13/12.82/14
Step  1700/2000   85.0% | t 85.000 | ETA 50s | step 0.11s | KE 377.1080 | drift -1.61% | fluid 246.6594 | solid 130.4486
  Impulse FP iterations last/mean/max 13/12.81/14
Step  1800/2000   90.0% | t 90.000 | ETA 33s | step 0.11s | KE 377.0892 | drift -1.61% | fluid 246.7115 | solid 130.3777
  Impulse FP iterations last/mean/max 13/12.81/14
Step  1900/2000   95.0% | t 95.000 | ETA 16s | step 0.11s | KE 377.3170 | drift -1.55% | fluid 246.6619 | solid 130.6551
  Impulse FP iterations last/mean/max 13/12.81/14
Solver finished successfully - good job!
Results saved successfully.

================== Run summary ==================
  Bodies:            2
  Triangles / nodes: 256 / 516
  Timesteps:         2000  (dt = 0.05)
  Simulated time:    0 -> 100
  First-step setup:  0.413 s
  Mean time/step:    0.1608 s  (excl. first step)
  Total wall time:   5m 21s
  Impulse FP iters last/mean/max: 13 / 12.806 / 14
  Approx impulse solves/step:     12.806
  Impulse start cache hits/direct: 1999 / 1
  Impulse global drift P/H:       3.289468e-8 / 3.769957e-3
  Impulse per-body max drift P/H: 3.563594e-8 / 7.860902e-4
  CPU cores:         256 available, 8 Rayon worker thread(s)
  Started:           2026-06-24 01:39:27
  Finished:          2026-06-24 01:44:49
  Output file:       /work/e643/e643/shared/multi_ellip/studies/two_body_paper_sweeps/runs/spheroid_1_0p7_0p7/spheroid_1_0p7_0p7_rho0p3_E0p2_sep5_run03_impulse_noproj/multiple_body_complete.dat
================================================
