
================ Simulation setup ================
  Run label:         /work/e643/e643/shared/multi_ellip/studies/departing_sphericity_sweep/runs/triaxial/homogeneous/triaxial_homogeneous_eps0p003_rho1_E0p5_sep8_run06_impulse_noproj/
  Started:           2026-06-24 02:26:26
  Input file:        /work/e643/e643/shared/multi_ellip/studies/departing_sphericity_sweep/runs/triaxial/homogeneous/triaxial_homogeneous_eps0p003_rho1_E0p5_sep8_run06_impulse_noproj/input.txt
  Output file:       /work/e643/e643/shared/multi_ellip/studies/departing_sphericity_sweep/runs/triaxial/homogeneous/triaxial_homogeneous_eps0p003_rho1_E0p5_sep8_run06_impulse_noproj/multiple_body_complete.dat
  Bodies:            2
  Fluid density:     1
  Mesh:              ndiv 2 -> 256 triangles / 516 nodes
  Simulated time:    0 -> 100  (dt = 0.05, ~2000 steps)
  Output cadence:    every 1 step(s)
  Output rows:       ~2001
  Progress cadence:  every 100 step(s)
  CPU cores:         256 available, 8 Rayon worker thread(s)
  Strong coupling:   disabled
  Impulse scheme:    enabled
  Hamiltonian step:  disabled
  Hamiltonian midpt: disabled
  Variational step:  disabled
  Energy projection: disabled
  Projection particular metric: Euclidean
  Fluid KE gradient: disabled  (eps = 0.001, scale = 1, linear = 1, angular = 1)
  Fluid KE discrete gradient: disabled
  Impulse pair metric correction: disabled  (mode = pair discrete-gradient, cutoff = all pairs, inner/outer = 0/0, eps = 0.001, linear scale = 1, angular scale = 0)
  Impulse metric correction: disabled  (internal load constraint = disabled)
  Impulse variational defect probe: disabled
  Impulse quadratic pressure: disabled  (scale = 1)
  Added-mass stab:   disabled
  Exact BEM geometry: disabled
  Exact singular BEM: disabled
  Legacy singular SLP diagnostic: disabled
  Phi-dot blend:     0 (off)

  Solver guidance:
    - Strong coupling: use for stiff close-coupled runs; slower but more implicit.
    - Impulse scheme: use when impulse/momentum conservation or KE drift is the focus. Recommended.
    - Added-mass stab: use for higher mesh counts (ndiv > 3) to preserve stability - deprecated.
================================================
Solver starting - good luck!

Initial state:
  Body  1
    density:          1.000000
    shape axes ratio: (1.000000, 0.997009, 0.994027)
    initial KE ratio: 0.500000
    position:         (-4.000000, 0.000000, 0.000000)
    velocity:         (1.747261, -3.877520, -3.670683)
    angular velocity: (-3.329286, -5.114760, 1.494492)
    orientation:      (w=-0.323431, i=-0.802227, j=0.419407, k=0.275539)
  Body  2
    density:          1.000000
    shape axes ratio: (1.000000, 0.997009, 0.994027)
    initial KE ratio: 0.500000
    position:         (4.000000, 0.000000, 0.000000)
    velocity:         (1.748269, -3.879756, -3.672799)
    angular velocity: (0.533295, -5.708237, 2.571001)
    orientation:      (w=-0.669856, i=-0.321669, j=0.251528, k=-0.620126)

Preparing first step: implicit scheme, no bootstrap passes required.
First step may take longer than later steps.

First step completed in 0.256 s.

Step   100/2000    5.0% | t 5.000 | ETA 3m 26s | step 0.10s | KE 281.3784 | drift +3.91% | fluid 72.3860 | solid 208.9924
  Impulse FP iterations last/mean/max 8/7.76/8
Step   200/2000   10.0% | t 10.000 | ETA 3m 14s | step 0.10s | KE 292.8514 | drift +8.15% | fluid 72.3711 | solid 220.4803
  Impulse FP iterations last/mean/max 7/7.71/8
Step   300/2000   15.0% | t 15.000 | ETA 3m 4s | step 0.12s | KE 305.1281 | drift +12.68% | fluid 72.3472 | solid 232.7808
  Impulse FP iterations last/mean/max 8/7.70/8
Step   400/2000   20.0% | t 20.000 | ETA 2m 54s | step 0.10s | KE 318.1473 | drift +17.49% | fluid 72.3202 | solid 245.8270
  Impulse FP iterations last/mean/max 7/7.72/8
Step   500/2000   25.0% | t 25.000 | ETA 2m 42s | step 0.12s | KE 331.8487 | drift +22.55% | fluid 72.3115 | solid 259.5372
  Impulse FP iterations last/mean/max 8/7.69/8
Step   600/2000   30.0% | t 30.000 | ETA 2m 31s | step 0.10s | KE 346.1971 | drift +27.85% | fluid 72.2857 | solid 273.9114
  Impulse FP iterations last/mean/max 7/7.68/8
Step   700/2000   35.0% | t 35.000 | ETA 2m 20s | step 0.10s | KE 361.1256 | drift +33.36% | fluid 72.2879 | solid 288.8377
  Impulse FP iterations last/mean/max 7/7.65/8
Step   800/2000   40.0% | t 40.000 | ETA 2m 9s | step 0.11s | KE 376.6098 | drift +39.08% | fluid 72.3224 | solid 304.2874
  Impulse FP iterations last/mean/max 8/7.63/8
Step   900/2000   45.0% | t 45.000 | ETA 1m 58s | step 0.12s | KE 392.6155 | drift +44.99% | fluid 72.3456 | solid 320.2699
  Impulse FP iterations last/mean/max 8/7.60/8
Step  1000/2000   50.0% | t 50.000 | ETA 1m 47s | step 0.12s | KE 409.0935 | drift +51.07% | fluid 72.4005 | solid 336.6930
  Impulse FP iterations last/mean/max 8/7.58/8
Step  1100/2000   55.0% | t 55.000 | ETA 1m 35s | step 0.08s | KE 426.0900 | drift +57.35% | fluid 72.2705 | solid 353.8195
  Impulse FP iterations last/mean/max 6/7.55/8
Step  1200/2000   60.0% | t 60.000 | ETA 1m 24s | step 0.10s | KE 443.4255 | drift +63.75% | fluid 72.3584 | solid 371.0671
  Impulse FP iterations last/mean/max 8/7.53/8
Step  1300/2000   65.0% | t 65.000 | ETA 1m 13s | step 0.11s | KE 461.1781 | drift +70.31% | fluid 72.3786 | solid 388.7995
  Impulse FP iterations last/mean/max 8/7.51/8
Step  1400/2000   70.0% | t 70.000 | ETA 1m 2s | step 0.10s | KE 479.3393 | drift +77.01% | fluid 72.3165 | solid 407.0228
  Impulse FP iterations last/mean/max 7/7.49/8
Step  1500/2000   75.0% | t 75.000 | ETA 52s | step 0.10s | KE 497.7821 | drift +83.83% | fluid 72.3774 | solid 425.4047
  Impulse FP iterations last/mean/max 7/7.47/8
Step  1600/2000   80.0% | t 80.000 | ETA 41s | step 0.10s | KE 516.6078 | drift +90.78% | fluid 72.3064 | solid 444.3014
  Impulse FP iterations last/mean/max 7/7.44/8
Step  1700/2000   85.0% | t 85.000 | ETA 31s | step 0.10s | KE 535.6353 | drift +97.80% | fluid 72.3873 | solid 463.2480
  Impulse FP iterations last/mean/max 7/7.42/8
Step  1800/2000   90.0% | t 90.000 | ETA 20s | step 0.10s | KE 555.0291 | drift +104.97% | fluid 72.2860 | solid 482.7431
  Impulse FP iterations last/mean/max 7/7.40/8
Step  1900/2000   95.0% | t 95.000 | ETA 10s | step 0.09s | KE 574.5892 | drift +112.19% | fluid 72.3361 | solid 502.2531
  Impulse FP iterations last/mean/max 8/7.39/8
Solver finished successfully - good job!
Results saved successfully.

================== Run summary ==================
  Bodies:            2
  Triangles / nodes: 256 / 516
  Timesteps:         2000  (dt = 0.05)
  Simulated time:    0 -> 100
  First-step setup:  0.256 s
  Mean time/step:    0.1032 s  (excl. first step)
  Total wall time:   3m 26s
  Impulse FP iters last/mean/max: 7 / 7.376 / 8
  Approx impulse solves/step:     7.377
  Impulse start cache hits/direct: 1999 / 1
  Impulse global drift P/H:       2.912192e-8 / 2.155114e-2
  Impulse per-body max drift P/H: 3.309477e-8 / 1.721558e-3
  CPU cores:         256 available, 8 Rayon worker thread(s)
  Started:           2026-06-24 02:26:26
  Finished:          2026-06-24 02:29:53
  Output file:       /work/e643/e643/shared/multi_ellip/studies/departing_sphericity_sweep/runs/triaxial/homogeneous/triaxial_homogeneous_eps0p003_rho1_E0p5_sep8_run06_impulse_noproj/multiple_body_complete.dat
================================================
