
================ Simulation setup ================
  Run label:         /work/e643/e643/shared/multi_ellip/studies/multibody_convergence_sweep/runs/periodic_grid_spheroid_1_0p7_0p7_rho4_E1_sep8_nd1_dt0p05/
  Started:           2026-06-22 20:20:24
  Input file:        /work/e643/e643/shared/multi_ellip/studies/multibody_convergence_sweep/runs/periodic_grid_spheroid_1_0p7_0p7_rho4_E1_sep8_nd1_dt0p05/input.txt
  Output file:       /work/e643/e643/shared/multi_ellip/studies/multibody_convergence_sweep/runs/periodic_grid_spheroid_1_0p7_0p7_rho4_E1_sep8_nd1_dt0p05/multiple_body_complete.dat
  Bodies:            2
  Fluid density:     1
  Mesh:              ndiv 1 -> 64 triangles / 132 nodes
  Simulated time:    0 -> 10  (dt = 0.05, ~200 steps)
  Output cadence:    every 1 step(s)
  Output rows:       ~201
  Progress cadence:  every 20 step(s)
  CPU cores:         256 available, 16 Rayon worker thread(s)
  Strong coupling:   disabled
  Impulse scheme:    enabled
  Hamiltonian step:  disabled
  Hamiltonian midpt: disabled
  Variational step:  disabled
  Energy projection: disabled
  Projection particular metric: Euclidean
  Fluid KE gradient: disabled  (eps = 0.001, scale = 1, linear = 1, angular = 1)
  Fluid KE discrete gradient: disabled
  Impulse pair metric correction: disabled  (mode = pair discrete-gradient, cutoff = all pairs, inner/outer = 0/0, eps = 0.001, linear scale = 1, angular scale = 0)
  Impulse metric correction: disabled  (internal load constraint = disabled)
  Impulse variational defect probe: disabled
  Impulse quadratic pressure: disabled  (scale = 1)
  Added-mass stab:   disabled
  Exact BEM geometry: disabled
  Exact singular BEM: disabled
  Legacy singular SLP diagnostic: disabled
  Phi-dot blend:     0 (off)

  Solver guidance:
    - Strong coupling: use for stiff close-coupled runs; slower but more implicit.
    - Impulse scheme: use when impulse/momentum conservation or KE drift is the focus. Recommended.
    - Added-mass stab: use for higher mesh counts (ndiv > 3) to preserve stability - deprecated.
================================================
Solver starting - good luck!

Initial state:
  Body  1
    density:          4.000000
    shape axes ratio: (1.000000, 0.700000, 0.700000)
    initial KE ratio: 1.000000
    position:         (-4.000000, 0.000000, 0.000000)
    velocity:         (-0.155708, 4.342027, -0.119087)
    angular velocity: (-0.472853, 5.092162, -3.650303)
    orientation:      (w=0.447214, i=0.894427, j=0.000000, k=0.000000)
  Body  2
    density:          4.000000
    shape axes ratio: (1.000000, 0.700000, 0.700000)
    initial KE ratio: 1.000000
    position:         (4.000000, 0.000000, 0.000000)
    velocity:         (-0.155856, 4.346165, -0.119200)
    angular velocity: (-0.063661, 4.827836, 4.020741)
    orientation:      (w=0.707107, i=0.000000, j=0.707107, k=0.000000)

Preparing first step: implicit scheme, no bootstrap passes required.
First step may take longer than later steps.

First step completed in 0.019 s.

Step    20/200    10.0% | t 1.000 | ETA 1s | step 0.01s | KE 669.7136 | drift -0.01% | fluid 58.0052 | solid 611.7084
  Impulse FP iterations last/mean/max 8/7.10/8
Step    40/200    20.0% | t 2.000 | ETA 1s | step 0.01s | KE 669.7322 | drift -0.01% | fluid 55.4565 | solid 614.2757
  Impulse FP iterations last/mean/max 7/7.10/8
Step    60/200    30.0% | t 3.000 | ETA 1s | step 0.01s | KE 669.8462 | drift +0.01% | fluid 51.6673 | solid 618.1789
  Impulse FP iterations last/mean/max 8/7.10/8
Step    80/200    40.0% | t 4.000 | ETA 1s | step 0.01s | KE 669.8530 | drift +0.01% | fluid 51.1473 | solid 618.7058
  Impulse FP iterations last/mean/max 8/7.12/8
Step   100/200    50.0% | t 5.000 | ETA 0s | step 0.01s | KE 669.7392 | drift -0.00% | fluid 54.1867 | solid 615.5525
  Impulse FP iterations last/mean/max 7/7.14/8
Step   120/200    60.0% | t 6.000 | ETA 0s | step 0.01s | KE 669.6949 | drift -0.01% | fluid 56.3817 | solid 613.3132
  Impulse FP iterations last/mean/max 7/7.12/8
Step   140/200    70.0% | t 7.000 | ETA 0s | step 0.01s | KE 669.7353 | drift -0.01% | fluid 56.2904 | solid 613.4449
  Impulse FP iterations last/mean/max 7/7.13/8
Step   160/200    80.0% | t 8.000 | ETA 0s | step 0.01s | KE 669.7126 | drift -0.01% | fluid 55.8200 | solid 613.8926
  Impulse FP iterations last/mean/max 7/7.14/8
Step   180/200    90.0% | t 9.000 | ETA 0s | step 0.01s | KE 669.7189 | drift -0.01% | fluid 53.6383 | solid 616.0806
  Impulse FP iterations last/mean/max 7/7.14/8
Solver finished successfully - good job!
Results saved successfully.

================== Run summary ==================
  Bodies:            2
  Triangles / nodes: 64 / 132
  Timesteps:         200  (dt = 0.05)
  Simulated time:    0 -> 10
  First-step setup:  0.019 s
  Mean time/step:    0.0081 s  (excl. first step)
  Total wall time:   1.63s
  Impulse FP iters last/mean/max: 7 / 7.145 / 8
  Approx impulse solves/step:     7.150
  Impulse start cache hits/direct: 199 / 1
  Impulse global drift P/H:       9.877939e-10 / 5.971249e-3
  Impulse per-body max drift P/H: 2.033639e-9 / 1.560036e-3
  CPU cores:         256 available, 16 Rayon worker thread(s)
  Started:           2026-06-22 20:20:24
  Finished:          2026-06-22 20:20:27
  Output file:       /work/e643/e643/shared/multi_ellip/studies/multibody_convergence_sweep/runs/periodic_grid_spheroid_1_0p7_0p7_rho4_E1_sep8_nd1_dt0p05/multiple_body_complete.dat
================================================
