
================ Simulation setup ================
  Run label:         /work/e643/e643/shared/multi_ellip/studies/departing_sphericity_sweep/runs/triaxial/heterogeneous_aspherical/triaxial_heterogeneous_aspherical_eps0_rho1_E0p5_sep8_run09_impulse_noproj/
  Started:           2026-06-24 02:52:07
  Input file:        /work/e643/e643/shared/multi_ellip/studies/departing_sphericity_sweep/runs/triaxial/heterogeneous_aspherical/triaxial_heterogeneous_aspherical_eps0_rho1_E0p5_sep8_run09_impulse_noproj/input.txt
  Output file:       /work/e643/e643/shared/multi_ellip/studies/departing_sphericity_sweep/runs/triaxial/heterogeneous_aspherical/triaxial_heterogeneous_aspherical_eps0_rho1_E0p5_sep8_run09_impulse_noproj/multiple_body_complete.dat
  Bodies:            2
  Fluid density:     1
  Mesh:              ndiv 2 -> 256 triangles / 516 nodes
  Simulated time:    0 -> 100  (dt = 0.05, ~2000 steps)
  Output cadence:    every 1 step(s)
  Output rows:       ~2001
  Progress cadence:  every 100 step(s)
  CPU cores:         256 available, 8 Rayon worker thread(s)
  Strong coupling:   disabled
  Impulse scheme:    enabled
  Hamiltonian step:  disabled
  Hamiltonian midpt: disabled
  Variational step:  disabled
  Energy projection: disabled
  Projection particular metric: Euclidean
  Fluid KE gradient: disabled  (eps = 0.001, scale = 1, linear = 1, angular = 1)
  Fluid KE discrete gradient: disabled
  Impulse pair metric correction: disabled  (mode = pair discrete-gradient, cutoff = all pairs, inner/outer = 0/0, eps = 0.001, linear scale = 1, angular scale = 0)
  Impulse metric correction: disabled  (internal load constraint = disabled)
  Impulse variational defect probe: disabled
  Impulse quadratic pressure: disabled  (scale = 1)
  Added-mass stab:   disabled
  Exact BEM geometry: disabled
  Exact singular BEM: disabled
  Legacy singular SLP diagnostic: disabled
  Phi-dot blend:     0 (off)

  Solver guidance:
    - Strong coupling: use for stiff close-coupled runs; slower but more implicit.
    - Impulse scheme: use when impulse/momentum conservation or KE drift is the focus. Recommended.
    - Added-mass stab: use for higher mesh counts (ndiv > 3) to preserve stability - deprecated.
================================================
Solver starting - good luck!

Initial state:
  Body  1
    density:          1.000000
    shape axes ratio: (1.000000, 1.000000, 1.000000)
    initial KE ratio: 0.500000
    position:         (-4.000000, 0.000000, 0.000000)
    velocity:         (1.374394, -3.358627, 4.291084)
    angular velocity: (4.759020, 3.827707, -1.476078)
    orientation:      (w=0.376022, i=0.219593, j=-0.880178, k=-0.188869)
  Body  2
    density:          1.000000
    shape axes ratio: (1.000000, 0.500000, 0.250000)
    initial KE ratio: 0.500000
    position:         (4.000000, 0.000000, 0.000000)
    velocity:         (1.798378, -4.394722, 5.614830)
    angular velocity: (-4.022278, 1.431427, -4.609850)
    orientation:      (w=-0.410640, i=-0.549849, j=0.422940, k=0.591745)

Preparing first step: implicit scheme, no bootstrap passes required.
First step may take longer than later steps.

First step completed in 0.324 s.

Step   100/2000    5.0% | t 5.000 | ETA 4m 59s | step 0.12s | KE 428.4378 | drift -0.11% | fluid 120.0947 | solid 308.3431
  Impulse FP iterations last/mean/max 10/11.62/13
Step   200/2000   10.0% | t 10.000 | ETA 4m 32s | step 0.14s | KE 428.5595 | drift -0.08% | fluid 121.7683 | solid 306.7912
  Impulse FP iterations last/mean/max 11/11.39/13
Step   300/2000   15.0% | t 15.000 | ETA 4m 21s | step 0.17s | KE 429.3035 | drift +0.09% | fluid 127.3479 | solid 301.9556
  Impulse FP iterations last/mean/max 11/11.27/13
Step   400/2000   20.0% | t 20.000 | ETA 4m 9s | step 0.18s | KE 428.8234 | drift -0.02% | fluid 161.5791 | solid 267.2444
  Impulse FP iterations last/mean/max 12/11.21/13
Step   500/2000   25.0% | t 25.000 | ETA 3m 56s | step 0.16s | KE 430.9556 | drift +0.48% | fluid 150.5631 | solid 280.3926
  Impulse FP iterations last/mean/max 11/11.19/13
Step   600/2000   30.0% | t 30.000 | ETA 3m 42s | step 0.16s | KE 428.9255 | drift +0.01% | fluid 162.2428 | solid 266.6828
  Impulse FP iterations last/mean/max 11/11.19/13
Step   700/2000   35.0% | t 35.000 | ETA 3m 27s | step 0.15s | KE 429.4433 | drift +0.13% | fluid 120.4527 | solid 308.9906
  Impulse FP iterations last/mean/max 11/11.18/13
Step   800/2000   40.0% | t 40.000 | ETA 3m 12s | step 0.17s | KE 429.3782 | drift +0.11% | fluid 130.6623 | solid 298.7158
  Impulse FP iterations last/mean/max 11/11.16/13
Step   900/2000   45.0% | t 45.000 | ETA 2m 56s | step 0.17s | KE 429.6531 | drift +0.18% | fluid 146.1409 | solid 283.5122
  Impulse FP iterations last/mean/max 11/11.16/13
Step  1000/2000   50.0% | t 50.000 | ETA 2m 40s | step 0.17s | KE 426.9553 | drift -0.45% | fluid 135.5326 | solid 291.4227
  Impulse FP iterations last/mean/max 11/11.15/13
Step  1100/2000   55.0% | t 55.000 | ETA 2m 25s | step 0.15s | KE 429.6002 | drift +0.16% | fluid 137.0608 | solid 292.5394
  Impulse FP iterations last/mean/max 11/11.14/13
Step  1200/2000   60.0% | t 60.000 | ETA 2m 9s | step 0.16s | KE 428.1822 | drift -0.17% | fluid 124.0789 | solid 304.1033
  Impulse FP iterations last/mean/max 11/11.13/13
Step  1300/2000   65.0% | t 65.000 | ETA 1m 53s | step 0.15s | KE 427.8148 | drift -0.25% | fluid 132.5084 | solid 295.3064
  Impulse FP iterations last/mean/max 10/11.13/13
Step  1400/2000   70.0% | t 70.000 | ETA 1m 37s | step 0.18s | KE 428.4222 | drift -0.11% | fluid 130.4741 | solid 297.9481
  Impulse FP iterations last/mean/max 12/11.12/13
Step  1500/2000   75.0% | t 75.000 | ETA 1m 20s | step 0.15s | KE 429.3210 | drift +0.10% | fluid 136.5881 | solid 292.7329
  Impulse FP iterations last/mean/max 11/11.12/13
Step  1600/2000   80.0% | t 80.000 | ETA 1m 4s | step 0.17s | KE 427.8650 | drift -0.24% | fluid 127.4347 | solid 300.4303
  Impulse FP iterations last/mean/max 11/11.12/13
Step  1700/2000   85.0% | t 85.000 | ETA 48s | step 0.16s | KE 427.6333 | drift -0.29% | fluid 140.1657 | solid 287.4677
  Impulse FP iterations last/mean/max 11/11.11/13
Step  1800/2000   90.0% | t 90.000 | ETA 32s | step 0.15s | KE 428.3809 | drift -0.12% | fluid 146.3185 | solid 282.0623
  Impulse FP iterations last/mean/max 11/11.12/13
Step  1900/2000   95.0% | t 95.000 | ETA 16s | step 0.16s | KE 428.3352 | drift -0.13% | fluid 134.4276 | solid 293.9076
  Impulse FP iterations last/mean/max 11/11.12/13
Solver finished successfully - good job!
Results saved successfully.

================== Run summary ==================
  Bodies:            2
  Triangles / nodes: 256 / 516
  Timesteps:         2000  (dt = 0.05)
  Simulated time:    0 -> 100
  First-step setup:  0.324 s
  Mean time/step:    0.1622 s  (excl. first step)
  Total wall time:   5m 24s
  Impulse FP iters last/mean/max: 11 / 11.120 / 13
  Approx impulse solves/step:     11.120
  Impulse start cache hits/direct: 1999 / 1
  Impulse global drift P/H:       2.759396e-9 / 6.077288e-2
  Impulse per-body max drift P/H: 6.723301e-9 / 1.583035e-2
  CPU cores:         256 available, 8 Rayon worker thread(s)
  Started:           2026-06-24 02:52:07
  Finished:          2026-06-24 02:57:32
  Output file:       /work/e643/e643/shared/multi_ellip/studies/departing_sphericity_sweep/runs/triaxial/heterogeneous_aspherical/triaxial_heterogeneous_aspherical_eps0_rho1_E0p5_sep8_run09_impulse_noproj/multiple_body_complete.dat
================================================
