
================ Simulation setup ================
  Run label:         /work/e643/e643/shared/multi_ellip/studies/two_body_paper_sweeps/runs/ellipsoid_1_0p8_0p6/ellipsoid_1_0p8_0p6_rho0p03_E0p2_sep11_run05_impulse_noproj/
  Started:           2026-06-24 02:24:43
  Input file:        /work/e643/e643/shared/multi_ellip/studies/two_body_paper_sweeps/runs/ellipsoid_1_0p8_0p6/ellipsoid_1_0p8_0p6_rho0p03_E0p2_sep11_run05_impulse_noproj/input.txt
  Output file:       /work/e643/e643/shared/multi_ellip/studies/two_body_paper_sweeps/runs/ellipsoid_1_0p8_0p6/ellipsoid_1_0p8_0p6_rho0p03_E0p2_sep11_run05_impulse_noproj/multiple_body_complete.dat
  Bodies:            2
  Fluid density:     1
  Mesh:              ndiv 2 -> 256 triangles / 516 nodes
  Simulated time:    0 -> 100  (dt = 0.05, ~2000 steps)
  Output cadence:    every 1 step(s)
  Output rows:       ~2001
  Progress cadence:  every 100 step(s)
  CPU cores:         256 available, 8 Rayon worker thread(s)
  Strong coupling:   disabled
  Impulse scheme:    enabled
  Hamiltonian step:  disabled
  Hamiltonian midpt: disabled
  Variational step:  disabled
  Energy projection: disabled
  Projection particular metric: Euclidean
  Fluid KE gradient: disabled  (eps = 0.001, scale = 1, linear = 1, angular = 1)
  Fluid KE discrete gradient: disabled
  Impulse pair metric correction: disabled  (mode = pair discrete-gradient, cutoff = all pairs, inner/outer = 0/0, eps = 0.001, linear scale = 1, angular scale = 0)
  Impulse metric correction: disabled  (internal load constraint = disabled)
  Impulse variational defect probe: disabled
  Impulse quadratic pressure: disabled  (scale = 1)
  Added-mass stab:   disabled
  Exact BEM geometry: disabled
  Exact singular BEM: disabled
  Legacy singular SLP diagnostic: disabled
  Phi-dot blend:     0 (off)

  Solver guidance:
    - Strong coupling: use for stiff close-coupled runs; slower but more implicit.
    - Impulse scheme: use when impulse/momentum conservation or KE drift is the focus. Recommended.
    - Added-mass stab: use for higher mesh counts (ndiv > 3) to preserve stability - deprecated.
================================================
Solver starting - good luck!

Initial state:
  Body  1
    density:          0.030000
    shape axes ratio: (1.000000, 0.800000, 0.600000)
    initial KE ratio: 0.200000
    position:         (-5.500000, 0.000000, 0.000000)
    velocity:         (7.660695, -0.352530, -3.847515)
    angular velocity: (-5.177481, -2.963917, 1.971625)
    orientation:      (w=-0.978766, i=-0.106837, j=-0.165030, k=0.058036)
  Body  2
    density:          0.030000
    shape axes ratio: (1.000000, 0.800000, 0.600000)
    initial KE ratio: 0.200000
    position:         (5.500000, 0.000000, 0.000000)
    velocity:         (8.209106, -0.377767, -4.122949)
    angular velocity: (2.314681, -5.823053, 0.461221)
    orientation:      (w=-0.744591, i=-0.409298, j=-0.323873, k=0.416131)

Preparing first step: implicit scheme, no bootstrap passes required.
First step may take longer than later steps.

First step completed in 0.600 s.

Step   100/2000    5.0% | t 5.000 | ETA 13m 7s | step 0.42s | KE 139.2845 | drift -3.13% | fluid 123.8397 | solid 15.4449
  Impulse FP iterations last/mean/max 30/29.64/30
Step   200/2000   10.0% | t 10.000 | ETA 12m 2s | step 0.38s | KE 139.6665 | drift -2.87% | fluid 121.3880 | solid 18.2784
  Impulse FP iterations last/mean/max 29/29.72/30
Step   300/2000   15.0% | t 15.000 | ETA 10m 47s | step 0.33s | KE 140.0944 | drift -2.57% | fluid 122.7205 | solid 17.3738
  Impulse FP iterations last/mean/max 30/29.74/30
Step   400/2000   20.0% | t 20.000 | ETA 9m 54s | step 0.38s | KE 138.8342 | drift -3.45% | fluid 124.0373 | solid 14.7969
  Impulse FP iterations last/mean/max 30/29.77/30
Step   500/2000   25.0% | t 25.000 | ETA 9m 11s | step 0.36s | KE 137.4934 | drift -4.38% | fluid 118.1816 | solid 19.3118
  Impulse FP iterations last/mean/max 30/29.77/30
Step   600/2000   30.0% | t 30.000 | ETA 8m 37s | step 0.40s | KE 138.8076 | drift -3.46% | fluid 118.3290 | solid 20.4786
  Impulse FP iterations last/mean/max 30/29.79/30
Step   700/2000   35.0% | t 35.000 | ETA 8m 1s | step 0.40s | KE 135.5844 | drift -5.71% | fluid 119.0028 | solid 16.5817
  Impulse FP iterations last/mean/max 30/29.78/30
Step   800/2000   40.0% | t 40.000 | ETA 7m 24s | step 0.36s | KE 134.8751 | drift -6.20% | fluid 110.1980 | solid 24.6770
  Impulse FP iterations last/mean/max 30/29.79/30
Step   900/2000   45.0% | t 45.000 | ETA 6m 48s | step 0.38s | KE 136.6704 | drift -4.95% | fluid 119.8379 | solid 16.8325
  Impulse FP iterations last/mean/max 30/29.79/30
Step  1000/2000   50.0% | t 50.000 | ETA 6m 10s | step 0.35s | KE 141.9440 | drift -1.28% | fluid 128.5185 | solid 13.4255
  Impulse FP iterations last/mean/max 28/29.79/30
Step  1100/2000   55.0% | t 55.000 | ETA 5m 33s | step 0.38s | KE 132.8487 | drift -7.61% | fluid 112.9875 | solid 19.8611
  Impulse FP iterations last/mean/max 30/29.79/30
Step  1200/2000   60.0% | t 60.000 | ETA 4m 55s | step 0.36s | KE 140.1823 | drift -2.51% | fluid 121.9532 | solid 18.2291
  Impulse FP iterations last/mean/max 30/29.80/30
Step  1300/2000   65.0% | t 65.000 | ETA 4m 17s | step 0.33s | KE 135.3210 | drift -5.89% | fluid 118.4117 | solid 16.9093
  Impulse FP iterations last/mean/max 30/29.79/30
Step  1400/2000   70.0% | t 70.000 | ETA 3m 38s | step 0.30s | KE 135.6289 | drift -5.67% | fluid 117.4808 | solid 18.1481
  Impulse FP iterations last/mean/max 30/29.79/30
Step  1500/2000   75.0% | t 75.000 | ETA 2m 59s | step 0.29s | KE 140.8749 | drift -2.03% | fluid 121.4011 | solid 19.4738
  Impulse FP iterations last/mean/max 30/29.78/30
Step  1600/2000   80.0% | t 80.000 | ETA 2m 22s | step 0.28s | KE 142.6479 | drift -0.79% | fluid 127.9325 | solid 14.7153
  Impulse FP iterations last/mean/max 30/29.79/30
Step  1700/2000   85.0% | t 85.000 | ETA 1m 45s | step 0.29s | KE 138.8084 | drift -3.46% | fluid 124.6323 | solid 14.1760
  Impulse FP iterations last/mean/max 30/29.79/30
Step  1800/2000   90.0% | t 90.000 | ETA 1m 9s | step 0.24s | KE 138.2932 | drift -3.82% | fluid 121.2193 | solid 17.0739
  Impulse FP iterations last/mean/max 26/29.78/30
Step  1900/2000   95.0% | t 95.000 | ETA 34s | step 0.29s | KE 144.5945 | drift +0.56% | fluid 126.6410 | solid 17.9535
  Impulse FP iterations last/mean/max 30/29.78/30
Solver finished successfully - good job!
Results saved successfully.

================== Run summary ==================
  Bodies:            2
  Triangles / nodes: 256 / 516
  Timesteps:         2000  (dt = 0.05)
  Simulated time:    0 -> 100
  First-step setup:  0.600 s
  Mean time/step:    0.3410 s  (excl. first step)
  Total wall time:   11m 22s
  Impulse FP iters last/mean/max: 30 / 29.773 / 30
  Approx impulse solves/step:     29.774
  Impulse start cache hits/direct: 1999 / 1
  Impulse global drift P/H:       9.303359e-5 / 7.715201e-2
  Impulse per-body max drift P/H: 1.078667e-4 / 2.907299e-2
  CPU cores:         256 available, 8 Rayon worker thread(s)
  Started:           2026-06-24 02:24:43
  Finished:          2026-06-24 02:36:06
  Output file:       /work/e643/e643/shared/multi_ellip/studies/two_body_paper_sweeps/runs/ellipsoid_1_0p8_0p6/ellipsoid_1_0p8_0p6_rho0p03_E0p2_sep11_run05_impulse_noproj/multiple_body_complete.dat
================================================
