
================ Simulation setup ================
  Run label:         /work/e643/e643/shared/multi_ellip/studies/two_body_paper_sweeps/runs/ellipsoid_1_0p8_0p6/ellipsoid_1_0p8_0p6_rho4_E11_sep3_run02_impulse_noproj/
  Started:           2026-06-22 19:30:42
  Input file:        /work/e643/e643/shared/multi_ellip/studies/two_body_paper_sweeps/runs/ellipsoid_1_0p8_0p6/ellipsoid_1_0p8_0p6_rho4_E11_sep3_run02_impulse_noproj/input.txt
  Output file:       /work/e643/e643/shared/multi_ellip/studies/two_body_paper_sweeps/runs/ellipsoid_1_0p8_0p6/ellipsoid_1_0p8_0p6_rho4_E11_sep3_run02_impulse_noproj/multiple_body_complete.dat
  Bodies:            2
  Fluid density:     1
  Mesh:              ndiv 2 -> 256 triangles / 516 nodes
  Simulated time:    0 -> 100  (dt = 0.05, ~2000 steps)
  Output cadence:    every 1 step(s)
  Output rows:       ~2001
  Progress cadence:  every 100 step(s)
  CPU cores:         256 available, 8 Rayon worker thread(s)
  Strong coupling:   disabled
  Impulse scheme:    enabled
  Hamiltonian step:  disabled
  Hamiltonian midpt: disabled
  Variational step:  disabled
  Energy projection: disabled
  Projection particular metric: Euclidean
  Fluid KE gradient: disabled  (eps = 0.001, scale = 1, linear = 1, angular = 1)
  Fluid KE discrete gradient: disabled
  Impulse pair metric correction: disabled  (mode = pair discrete-gradient, cutoff = all pairs, inner/outer = 0/0, eps = 0.001, linear scale = 1, angular scale = 0)
  Impulse metric correction: disabled  (internal load constraint = disabled)
  Impulse variational defect probe: disabled
  Impulse quadratic pressure: disabled  (scale = 1)
  Added-mass stab:   disabled
  Exact BEM geometry: disabled
  Exact singular BEM: disabled
  Legacy singular SLP diagnostic: disabled
  Phi-dot blend:     0 (off)

  Solver guidance:
    - Strong coupling: use for stiff close-coupled runs; slower but more implicit.
    - Impulse scheme: use when impulse/momentum conservation or KE drift is the focus. Recommended.
    - Added-mass stab: use for higher mesh counts (ndiv > 3) to preserve stability - deprecated.
================================================
Solver starting - good luck!

Initial state:
  Body  1
    density:          4.000000
    shape axes ratio: (1.000000, 0.800000, 0.600000)
    initial KE ratio: 11.000000
    position:         (-1.500000, 0.000000, 0.000000)
    velocity:         (1.284141, 0.106344, -0.282550)
    angular velocity: (2.399062, 2.919737, -5.019767)
    orientation:      (w=0.577350, i=0.577350, j=0.577350, k=0.000000)
  Body  2
    density:          4.000000
    shape axes ratio: (1.000000, 0.800000, 0.600000)
    initial KE ratio: 11.000000
    position:         (1.500000, 0.000000, 0.000000)
    velocity:         (1.262473, 0.104550, -0.277782)
    angular velocity: (-3.088952, -2.623574, -4.801422)
    orientation:      (w=0.577350, i=-0.577350, j=0.000000, k=0.577350)

Preparing first step: implicit scheme, no bootstrap passes required.
First step may take longer than later steps.

First step completed in 0.272 s.

Step   100/2000    5.0% | t 5.000 | ETA 3m 53s | step 0.12s | KE 302.2329 | drift +0.58% | fluid 8.2517 | solid 293.9813
  Impulse FP iterations last/mean/max 9/8.91/9
Step   200/2000   10.0% | t 10.000 | ETA 3m 42s | step 0.12s | KE 304.2838 | drift +1.26% | fluid 10.8926 | solid 293.3912
  Impulse FP iterations last/mean/max 9/8.92/9
Step   300/2000   15.0% | t 15.000 | ETA 3m 31s | step 0.13s | KE 307.3578 | drift +2.28% | fluid 11.7869 | solid 295.5708
  Impulse FP iterations last/mean/max 9/8.94/9
Step   400/2000   20.0% | t 20.000 | ETA 3m 19s | step 0.12s | KE 312.6358 | drift +4.04% | fluid 9.4035 | solid 303.2323
  Impulse FP iterations last/mean/max 9/8.94/9
Step   500/2000   25.0% | t 25.000 | ETA 3m 7s | step 0.13s | KE 322.4880 | drift +7.32% | fluid 13.7848 | solid 308.7032
  Impulse FP iterations last/mean/max 9/8.95/9
Step   600/2000   30.0% | t 30.000 | ETA 2m 55s | step 0.12s | KE 336.5819 | drift +12.01% | fluid 8.5736 | solid 328.0083
  Impulse FP iterations last/mean/max 9/8.95/9
Step   700/2000   35.0% | t 35.000 | ETA 2m 44s | step 0.11s | KE 358.7361 | drift +19.38% | fluid 16.8404 | solid 341.8957
  Impulse FP iterations last/mean/max 9/8.96/10
Step   800/2000   40.0% | t 40.000 | ETA 2m 31s | step 0.12s | KE 398.1159 | drift +32.48% | fluid 18.9733 | solid 379.1426
  Impulse FP iterations last/mean/max 9/8.99/30
Step   900/2000   45.0% | t 45.000 | ETA 2m 18s | step 0.10s | KE 399.0641 | drift +32.80% | fluid 17.6746 | solid 381.3896
  Impulse FP iterations last/mean/max 8/8.97/30
Step  1000/2000   50.0% | t 50.000 | ETA 2m 4s | step 0.12s | KE 399.1662 | drift +32.83% | fluid 18.5922 | solid 380.5740
  Impulse FP iterations last/mean/max 8/8.93/30
Step  1100/2000   55.0% | t 55.000 | ETA 1m 51s | step 0.11s | KE 399.3343 | drift +32.89% | fluid 18.0813 | solid 381.2529
  Impulse FP iterations last/mean/max 8/8.89/30
Step  1200/2000   60.0% | t 60.000 | ETA 1m 38s | step 0.10s | KE 399.4251 | drift +32.92% | fluid 16.9469 | solid 382.4782
  Impulse FP iterations last/mean/max 8/8.86/30
Step  1300/2000   65.0% | t 65.000 | ETA 1m 25s | step 0.11s | KE 399.3127 | drift +32.88% | fluid 19.7109 | solid 379.6017
  Impulse FP iterations last/mean/max 8/8.84/30
Step  1400/2000   70.0% | t 70.000 | ETA 1m 13s | step 0.12s | KE 399.4802 | drift +32.94% | fluid 17.5937 | solid 381.8865
  Impulse FP iterations last/mean/max 9/8.82/30
Step  1500/2000   75.0% | t 75.000 | ETA 1m 0s | step 0.12s | KE 399.4013 | drift +32.91% | fluid 18.3786 | solid 381.0227
  Impulse FP iterations last/mean/max 9/8.80/30
Step  1600/2000   80.0% | t 80.000 | ETA 48s | step 0.12s | KE 399.4111 | drift +32.91% | fluid 16.5445 | solid 382.8666
  Impulse FP iterations last/mean/max 9/8.79/30
Step  1700/2000   85.0% | t 85.000 | ETA 36s | step 0.11s | KE 399.5190 | drift +32.95% | fluid 17.2640 | solid 382.2550
  Impulse FP iterations last/mean/max 8/8.77/30
Step  1800/2000   90.0% | t 90.000 | ETA 24s | step 0.12s | KE 399.3690 | drift +32.90% | fluid 18.9709 | solid 380.3980
  Impulse FP iterations last/mean/max 9/8.76/30
Step  1900/2000   95.0% | t 95.000 | ETA 12s | step 0.09s | KE 399.5000 | drift +32.94% | fluid 18.0866 | solid 381.4134
  Impulse FP iterations last/mean/max 8/8.74/30
Solver finished successfully - good job!
Results saved successfully.

================== Run summary ==================
  Bodies:            2
  Triangles / nodes: 256 / 516
  Timesteps:         2000  (dt = 0.05)
  Simulated time:    0 -> 100
  First-step setup:  0.272 s
  Mean time/step:    0.1184 s  (excl. first step)
  Total wall time:   3m 56s
  Impulse FP iters last/mean/max: 8 / 8.729 / 30
  Approx impulse solves/step:     8.730
  Impulse start cache hits/direct: 1999 / 1
  Impulse global drift P/H:       7.687699e-2 / 2.566204e0
  Impulse per-body max drift P/H: 2.749435e-1 / 6.032733e0
  CPU cores:         256 available, 8 Rayon worker thread(s)
  Started:           2026-06-22 19:30:42
  Finished:          2026-06-22 19:34:39
  Output file:       /work/e643/e643/shared/multi_ellip/studies/two_body_paper_sweeps/runs/ellipsoid_1_0p8_0p6/ellipsoid_1_0p8_0p6_rho4_E11_sep3_run02_impulse_noproj/multiple_body_complete.dat
================================================
