
================ Simulation setup ================
  Run label:         /work/e643/e643/shared/multi_ellip/studies/two_body_paper_sweeps/runs/ellipsoid_1_0p8_0p6/ellipsoid_1_0p8_0p6_rho0p03_E0p2_sep5_run01_impulse_noproj/
  Started:           2026-06-24 02:24:42
  Input file:        /work/e643/e643/shared/multi_ellip/studies/two_body_paper_sweeps/runs/ellipsoid_1_0p8_0p6/ellipsoid_1_0p8_0p6_rho0p03_E0p2_sep5_run01_impulse_noproj/input.txt
  Output file:       /work/e643/e643/shared/multi_ellip/studies/two_body_paper_sweeps/runs/ellipsoid_1_0p8_0p6/ellipsoid_1_0p8_0p6_rho0p03_E0p2_sep5_run01_impulse_noproj/multiple_body_complete.dat
  Bodies:            2
  Fluid density:     1
  Mesh:              ndiv 2 -> 256 triangles / 516 nodes
  Simulated time:    0 -> 100  (dt = 0.05, ~2000 steps)
  Output cadence:    every 1 step(s)
  Output rows:       ~2001
  Progress cadence:  every 100 step(s)
  CPU cores:         256 available, 8 Rayon worker thread(s)
  Strong coupling:   disabled
  Impulse scheme:    enabled
  Hamiltonian step:  disabled
  Hamiltonian midpt: disabled
  Variational step:  disabled
  Energy projection: disabled
  Projection particular metric: Euclidean
  Fluid KE gradient: disabled  (eps = 0.001, scale = 1, linear = 1, angular = 1)
  Fluid KE discrete gradient: disabled
  Impulse pair metric correction: disabled  (mode = pair discrete-gradient, cutoff = all pairs, inner/outer = 0/0, eps = 0.001, linear scale = 1, angular scale = 0)
  Impulse metric correction: disabled  (internal load constraint = disabled)
  Impulse variational defect probe: disabled
  Impulse quadratic pressure: disabled  (scale = 1)
  Added-mass stab:   disabled
  Exact BEM geometry: disabled
  Exact singular BEM: disabled
  Legacy singular SLP diagnostic: disabled
  Phi-dot blend:     0 (off)

  Solver guidance:
    - Strong coupling: use for stiff close-coupled runs; slower but more implicit.
    - Impulse scheme: use when impulse/momentum conservation or KE drift is the focus. Recommended.
    - Added-mass stab: use for higher mesh counts (ndiv > 3) to preserve stability - deprecated.
================================================
Solver starting - good luck!

Initial state:
  Body  1
    density:          0.030000
    shape axes ratio: (1.000000, 0.800000, 0.600000)
    initial KE ratio: 0.200000
    position:         (-2.500000, 0.000000, 0.000000)
    velocity:         (7.429389, 6.856939, 0.579601)
    angular velocity: (1.651410, -0.685516, -6.023399)
    orientation:      (w=-0.151807, i=0.492008, j=0.142853, k=0.845267)
  Body  2
    density:          0.030000
    shape axes ratio: (1.000000, 0.800000, 0.600000)
    initial KE ratio: 0.200000
    position:         (2.500000, 0.000000, 0.000000)
    velocity:         (7.193842, 6.639541, 0.561225)
    angular velocity: (0.996246, -4.294920, 4.476558)
    orientation:      (w=0.304856, i=0.709344, j=0.601571, k=0.204953)

Preparing first step: implicit scheme, no bootstrap passes required.
First step may take longer than later steps.

First step completed in 0.550 s.

Step   100/2000    5.0% | t 5.000 | ETA 13m 12s | step 0.41s | KE 248.8425 | drift -7.57% | fluid 231.6003 | solid 17.2422
  Impulse FP iterations last/mean/max 30/29.97/30
Step   200/2000   10.0% | t 10.000 | ETA 12m 6s | step 0.42s | KE 251.8801 | drift -6.44% | fluid 234.3055 | solid 17.5746
  Impulse FP iterations last/mean/max 30/29.93/30
Step   300/2000   15.0% | t 15.000 | ETA 11m 14s | step 0.42s | KE 258.5849 | drift -3.95% | fluid 242.7349 | solid 15.8500
  Impulse FP iterations last/mean/max 30/29.95/30
Step   400/2000   20.0% | t 20.000 | ETA 10m 27s | step 0.36s | KE 251.7996 | drift -6.47% | fluid 237.8340 | solid 13.9656
  Impulse FP iterations last/mean/max 30/29.95/30
Step   500/2000   25.0% | t 25.000 | ETA 9m 38s | step 0.34s | KE 251.5211 | drift -6.57% | fluid 238.1283 | solid 13.3928
  Impulse FP iterations last/mean/max 30/29.96/30
Step   600/2000   30.0% | t 30.000 | ETA 8m 56s | step 0.35s | KE 258.1523 | drift -4.11% | fluid 243.8669 | solid 14.2854
  Impulse FP iterations last/mean/max 30/29.96/30
Step   700/2000   35.0% | t 35.000 | ETA 8m 17s | step 0.39s | KE 257.5461 | drift -4.33% | fluid 238.8560 | solid 18.6901
  Impulse FP iterations last/mean/max 30/29.97/30
Step   800/2000   40.0% | t 40.000 | ETA 7m 34s | step 0.35s | KE 255.7175 | drift -5.01% | fluid 238.5169 | solid 17.2007
  Impulse FP iterations last/mean/max 30/29.96/30
Step   900/2000   45.0% | t 45.000 | ETA 6m 55s | step 0.34s | KE 254.9488 | drift -5.30% | fluid 237.0561 | solid 17.8927
  Impulse FP iterations last/mean/max 30/29.96/30
Step  1000/2000   50.0% | t 50.000 | ETA 6m 15s | step 0.35s | KE 270.9305 | drift +0.64% | fluid 253.8124 | solid 17.1181
  Impulse FP iterations last/mean/max 30/29.96/30
Step  1100/2000   55.0% | t 55.000 | ETA 5m 36s | step 0.35s | KE 260.5749 | drift -3.21% | fluid 244.3142 | solid 16.2607
  Impulse FP iterations last/mean/max 30/29.96/30
Step  1200/2000   60.0% | t 60.000 | ETA 4m 58s | step 0.39s | KE 260.4495 | drift -3.26% | fluid 246.2376 | solid 14.2119
  Impulse FP iterations last/mean/max 30/29.96/30
Step  1300/2000   65.0% | t 65.000 | ETA 4m 20s | step 0.37s | KE 263.7324 | drift -2.04% | fluid 249.3044 | solid 14.4280
  Impulse FP iterations last/mean/max 30/29.96/30
Step  1400/2000   70.0% | t 70.000 | ETA 3m 40s | step 0.29s | KE 266.7123 | drift -0.93% | fluid 247.0742 | solid 19.6381
  Impulse FP iterations last/mean/max 30/29.96/30
Step  1500/2000   75.0% | t 75.000 | ETA 3m 1s | step 0.29s | KE 264.8814 | drift -1.61% | fluid 245.0132 | solid 19.8682
  Impulse FP iterations last/mean/max 30/29.96/30
Step  1600/2000   80.0% | t 80.000 | ETA 2m 22s | step 0.28s | KE 257.5849 | drift -4.32% | fluid 242.8927 | solid 14.6922
  Impulse FP iterations last/mean/max 30/29.96/30
Step  1700/2000   85.0% | t 85.000 | ETA 1m 45s | step 0.27s | KE 267.9400 | drift -0.47% | fluid 252.8711 | solid 15.0689
  Impulse FP iterations last/mean/max 30/29.96/30
Step  1800/2000   90.0% | t 90.000 | ETA 1m 9s | step 0.27s | KE 264.5100 | drift -1.75% | fluid 246.9899 | solid 17.5201
  Impulse FP iterations last/mean/max 30/29.96/30
Step  1900/2000   95.0% | t 95.000 | ETA 34s | step 0.27s | KE 262.2280 | drift -2.60% | fluid 242.9346 | solid 19.2934
  Impulse FP iterations last/mean/max 30/29.96/30
Solver finished successfully - good job!
Results saved successfully.

================== Run summary ==================
  Bodies:            2
  Triangles / nodes: 256 / 516
  Timesteps:         2000  (dt = 0.05)
  Simulated time:    0 -> 100
  First-step setup:  0.550 s
  Mean time/step:    0.3393 s  (excl. first step)
  Total wall time:   11m 18s
  Impulse FP iters last/mean/max: 30 / 29.964 / 30
  Approx impulse solves/step:     29.964
  Impulse start cache hits/direct: 1999 / 1
  Impulse global drift P/H:       2.796574e-4 / 4.665988e-2
  Impulse per-body max drift P/H: 2.792748e-4 / 7.314092e-2
  CPU cores:         256 available, 8 Rayon worker thread(s)
  Started:           2026-06-24 02:24:42
  Finished:          2026-06-24 02:36:01
  Output file:       /work/e643/e643/shared/multi_ellip/studies/two_body_paper_sweeps/runs/ellipsoid_1_0p8_0p6/ellipsoid_1_0p8_0p6_rho0p03_E0p2_sep5_run01_impulse_noproj/multiple_body_complete.dat
================================================
