
================ Simulation setup ================
  Run label:         /work/e643/e643/shared/multi_ellip/studies/departing_sphericity_sweep/runs/spheroid_oblate/homogeneous/spheroid_oblate_homogeneous_eps0_rho1_E0p5_sep8_run02_impulse_noproj/
  Started:           2026-06-24 02:23:12
  Input file:        /work/e643/e643/shared/multi_ellip/studies/departing_sphericity_sweep/runs/spheroid_oblate/homogeneous/spheroid_oblate_homogeneous_eps0_rho1_E0p5_sep8_run02_impulse_noproj/input.txt
  Output file:       /work/e643/e643/shared/multi_ellip/studies/departing_sphericity_sweep/runs/spheroid_oblate/homogeneous/spheroid_oblate_homogeneous_eps0_rho1_E0p5_sep8_run02_impulse_noproj/multiple_body_complete.dat
  Bodies:            2
  Fluid density:     1
  Mesh:              ndiv 2 -> 256 triangles / 516 nodes
  Simulated time:    0 -> 100  (dt = 0.05, ~2000 steps)
  Output cadence:    every 1 step(s)
  Output rows:       ~2001
  Progress cadence:  every 100 step(s)
  CPU cores:         256 available, 8 Rayon worker thread(s)
  Strong coupling:   disabled
  Impulse scheme:    enabled
  Hamiltonian step:  disabled
  Hamiltonian midpt: disabled
  Variational step:  disabled
  Energy projection: disabled
  Projection particular metric: Euclidean
  Fluid KE gradient: disabled  (eps = 0.001, scale = 1, linear = 1, angular = 1)
  Fluid KE discrete gradient: disabled
  Impulse pair metric correction: disabled  (mode = pair discrete-gradient, cutoff = all pairs, inner/outer = 0/0, eps = 0.001, linear scale = 1, angular scale = 0)
  Impulse metric correction: disabled  (internal load constraint = disabled)
  Impulse variational defect probe: disabled
  Impulse quadratic pressure: disabled  (scale = 1)
  Added-mass stab:   disabled
  Exact BEM geometry: disabled
  Exact singular BEM: disabled
  Legacy singular SLP diagnostic: disabled
  Phi-dot blend:     0 (off)

  Solver guidance:
    - Strong coupling: use for stiff close-coupled runs; slower but more implicit.
    - Impulse scheme: use when impulse/momentum conservation or KE drift is the focus. Recommended.
    - Added-mass stab: use for higher mesh counts (ndiv > 3) to preserve stability - deprecated.
================================================
Solver starting - good luck!

Initial state:
  Body  1
    density:          1.000000
    shape axes ratio: (1.000000, 1.000000, 1.000000)
    initial KE ratio: 0.500000
    position:         (-4.000000, 0.000000, 0.000000)
    velocity:         (-2.788422, -2.539013, -4.166635)
    angular velocity: (-1.168287, 4.616214, -4.099279)
    orientation:      (w=-0.494641, i=0.156472, j=-0.095563, k=0.849538)
  Body  2
    density:          1.000000
    shape axes ratio: (1.000000, 1.000000, 1.000000)
    initial KE ratio: 0.500000
    position:         (4.000000, 0.000000, 0.000000)
    velocity:         (-2.788422, -2.539013, -4.166635)
    angular velocity: (3.126321, 5.099149, 1.924373)
    orientation:      (w=0.906708, i=-0.065818, j=0.193264, k=0.369049)

Preparing first step: implicit scheme, no bootstrap passes required.
First step may take longer than later steps.

First step completed in 4.794 s.

Step   100/2000    5.0% | t 5.000 | ETA 2m 29s | step 0.08s | KE 285.4964 | drift +5.39% | fluid 72.4503 | solid 213.0461
  Impulse FP iterations last/mean/max 6/5.99/6
Step   200/2000   10.0% | t 10.000 | ETA 2m 20s | step 0.08s | KE 302.5039 | drift +11.67% | fluid 72.4503 | solid 230.0537
  Impulse FP iterations last/mean/max 6/5.97/6
Step   300/2000   15.0% | t 15.000 | ETA 2m 12s | step 0.08s | KE 321.9130 | drift +18.84% | fluid 72.4503 | solid 249.4627
  Impulse FP iterations last/mean/max 6/5.97/6
Step   400/2000   20.0% | t 20.000 | ETA 2m 5s | step 0.07s | KE 343.7237 | drift +26.89% | fluid 72.4503 | solid 271.2734
  Impulse FP iterations last/mean/max 6/5.95/6
Step   500/2000   25.0% | t 25.000 | ETA 1m 57s | step 0.08s | KE 367.9358 | drift +35.82% | fluid 72.4503 | solid 295.4855
  Impulse FP iterations last/mean/max 6/5.93/6
Step   600/2000   30.0% | t 30.000 | ETA 1m 49s | step 0.07s | KE 394.5493 | drift +45.65% | fluid 72.4503 | solid 322.0990
  Impulse FP iterations last/mean/max 5/5.90/6
Step   700/2000   35.0% | t 35.000 | ETA 1m 40s | step 0.08s | KE 423.5644 | drift +56.36% | fluid 72.4503 | solid 351.1141
  Impulse FP iterations last/mean/max 6/5.87/6
Step   800/2000   40.0% | t 40.000 | ETA 1m 32s | step 0.07s | KE 454.9807 | drift +67.96% | fluid 72.4504 | solid 382.5303
  Impulse FP iterations last/mean/max 5/5.84/6
Step   900/2000   45.0% | t 45.000 | ETA 1m 24s | step 0.07s | KE 488.7984 | drift +80.44% | fluid 72.4504 | solid 416.3480
  Impulse FP iterations last/mean/max 5/5.82/6
Step  1000/2000   50.0% | t 50.000 | ETA 1m 16s | step 0.06s | KE 525.0173 | drift +93.81% | fluid 72.4504 | solid 452.5669
  Impulse FP iterations last/mean/max 5/5.80/6
Step  1100/2000   55.0% | t 55.000 | ETA 1m 8s | step 0.07s | KE 563.6374 | drift +108.07% | fluid 72.4504 | solid 491.1869
  Impulse FP iterations last/mean/max 5/5.77/6
Step  1200/2000   60.0% | t 60.000 | ETA 1m 1s | step 0.07s | KE 604.6586 | drift +123.21% | fluid 72.4505 | solid 532.2081
  Impulse FP iterations last/mean/max 6/5.75/6
Step  1300/2000   65.0% | t 65.000 | ETA 53s | step 0.07s | KE 648.0808 | drift +139.24% | fluid 72.4505 | solid 575.6303
  Impulse FP iterations last/mean/max 5/5.73/6
Step  1400/2000   70.0% | t 70.000 | ETA 45s | step 0.06s | KE 693.9038 | drift +156.16% | fluid 72.4505 | solid 621.4533
  Impulse FP iterations last/mean/max 5/5.70/6
Step  1500/2000   75.0% | t 75.000 | ETA 37s | step 0.06s | KE 742.1277 | drift +173.96% | fluid 72.4506 | solid 669.6772
  Impulse FP iterations last/mean/max 5/5.69/6
Step  1600/2000   80.0% | t 80.000 | ETA 30s | step 0.07s | KE 792.7523 | drift +192.65% | fluid 72.4506 | solid 720.3018
  Impulse FP iterations last/mean/max 6/5.67/6
Step  1700/2000   85.0% | t 85.000 | ETA 22s | step 0.08s | KE 845.7776 | drift +212.22% | fluid 72.4506 | solid 773.3270
  Impulse FP iterations last/mean/max 6/5.66/6
Step  1800/2000   90.0% | t 90.000 | ETA 14s | step 0.07s | KE 901.2033 | drift +232.68% | fluid 72.4507 | solid 828.7526
  Impulse FP iterations last/mean/max 6/5.65/6
Step  1900/2000   95.0% | t 95.000 | ETA 7s | step 0.06s | KE 959.0294 | drift +254.03% | fluid 72.4507 | solid 886.5788
  Impulse FP iterations last/mean/max 6/5.64/6
Solver finished successfully - good job!
Results saved successfully.

================== Run summary ==================
  Bodies:            2
  Triangles / nodes: 256 / 516
  Timesteps:         2000  (dt = 0.05)
  Simulated time:    0 -> 100
  First-step setup:  4.794 s
  Mean time/step:    0.0733 s  (excl. first step)
  Total wall time:   2m 31s
  Impulse FP iters last/mean/max: 6 / 5.628 / 6
  Approx impulse solves/step:     5.629
  Impulse start cache hits/direct: 1999 / 1
  Impulse global drift P/H:       1.510717e-9 / 2.696482e-2
  Impulse per-body max drift P/H: 1.749848e-9 / 4.699308e-3
  CPU cores:         256 available, 8 Rayon worker thread(s)
  Started:           2026-06-24 02:23:12
  Finished:          2026-06-24 02:25:44
  Output file:       /work/e643/e643/shared/multi_ellip/studies/departing_sphericity_sweep/runs/spheroid_oblate/homogeneous/spheroid_oblate_homogeneous_eps0_rho1_E0p5_sep8_run02_impulse_noproj/multiple_body_complete.dat
================================================
