
================ Simulation setup ================
  Run label:         /work/e643/e643/shared/multi_ellip/studies/two_body_paper_sweeps/runs/ellipsoid_1_0p8_0p6/ellipsoid_1_0p8_0p6_rho10_E0p55_sep5_run01_impulse_noproj/
  Started:           2026-06-22 19:23:16
  Input file:        /work/e643/e643/shared/multi_ellip/studies/two_body_paper_sweeps/runs/ellipsoid_1_0p8_0p6/ellipsoid_1_0p8_0p6_rho10_E0p55_sep5_run01_impulse_noproj/input.txt
  Output file:       /work/e643/e643/shared/multi_ellip/studies/two_body_paper_sweeps/runs/ellipsoid_1_0p8_0p6/ellipsoid_1_0p8_0p6_rho10_E0p55_sep5_run01_impulse_noproj/multiple_body_complete.dat
  Bodies:            2
  Fluid density:     1
  Mesh:              ndiv 2 -> 256 triangles / 516 nodes
  Simulated time:    0 -> 100  (dt = 0.05, ~2000 steps)
  Output cadence:    every 1 step(s)
  Output rows:       ~2001
  Progress cadence:  every 100 step(s)
  CPU cores:         256 available, 8 Rayon worker thread(s)
  Strong coupling:   disabled
  Impulse scheme:    enabled
  Hamiltonian step:  disabled
  Hamiltonian midpt: disabled
  Variational step:  disabled
  Energy projection: disabled
  Projection particular metric: Euclidean
  Fluid KE gradient: disabled  (eps = 0.001, scale = 1, linear = 1, angular = 1)
  Fluid KE discrete gradient: disabled
  Impulse pair metric correction: disabled  (mode = pair discrete-gradient, cutoff = all pairs, inner/outer = 0/0, eps = 0.001, linear scale = 1, angular scale = 0)
  Impulse metric correction: disabled  (internal load constraint = disabled)
  Impulse variational defect probe: disabled
  Impulse quadratic pressure: disabled  (scale = 1)
  Added-mass stab:   disabled
  Exact BEM geometry: disabled
  Exact singular BEM: disabled
  Legacy singular SLP diagnostic: disabled
  Phi-dot blend:     0 (off)

  Solver guidance:
    - Strong coupling: use for stiff close-coupled runs; slower but more implicit.
    - Impulse scheme: use when impulse/momentum conservation or KE drift is the focus. Recommended.
    - Added-mass stab: use for higher mesh counts (ndiv > 3) to preserve stability - deprecated.
================================================
Solver starting - good luck!

Initial state:
  Body  1
    density:          10.000000
    shape axes ratio: (1.000000, 0.800000, 0.600000)
    initial KE ratio: 0.550000
    position:         (-2.500000, 0.000000, 0.000000)
    velocity:         (2.067741, -3.634346, -4.418620)
    angular velocity: (-1.915351, -0.137108, -5.982562)
    orientation:      (w=0.447214, i=0.894427, j=0.000000, k=0.000000)
  Body  2
    density:          10.000000
    shape axes ratio: (1.000000, 0.800000, 0.600000)
    initial KE ratio: 0.550000
    position:         (2.500000, 0.000000, 0.000000)
    velocity:         (1.931729, -3.395285, -4.127971)
    angular velocity: (-3.603046, -2.661059, 4.406273)
    orientation:      (w=0.707107, i=0.000000, j=0.707107, k=0.000000)

Preparing first step: implicit scheme, no bootstrap passes required.
First step may take longer than later steps.

First step completed in 10.078 s.

Step   100/2000    5.0% | t 5.000 | ETA 3m 1s | step 0.10s | KE 2278.7692 | drift -0.04% | fluid 100.7680 | solid 2178.0012
  Impulse FP iterations last/mean/max 7/7.17/8
Step   200/2000   10.0% | t 10.000 | ETA 2m 53s | step 0.09s | KE 2260.4129 | drift -0.85% | fluid 110.1376 | solid 2150.2753
  Impulse FP iterations last/mean/max 7/7.18/8
Step   300/2000   15.0% | t 15.000 | ETA 2m 44s | step 0.09s | KE 2246.4035 | drift -1.46% | fluid 99.7289 | solid 2146.6746
  Impulse FP iterations last/mean/max 7/7.17/8
Step   400/2000   20.0% | t 20.000 | ETA 2m 34s | step 0.09s | KE 2240.8806 | drift -1.70% | fluid 74.4260 | solid 2166.4546
  Impulse FP iterations last/mean/max 7/7.17/8
Step   500/2000   25.0% | t 25.000 | ETA 2m 25s | step 0.09s | KE 2239.3504 | drift -1.77% | fluid 72.0185 | solid 2167.3319
  Impulse FP iterations last/mean/max 7/7.18/8
Step   600/2000   30.0% | t 30.000 | ETA 2m 15s | step 0.09s | KE 2238.0248 | drift -1.83% | fluid 116.9299 | solid 2121.0950
  Impulse FP iterations last/mean/max 7/7.18/8
Step   700/2000   35.0% | t 35.000 | ETA 2m 5s | step 0.10s | KE 2238.3383 | drift -1.82% | fluid 109.0957 | solid 2129.2426
  Impulse FP iterations last/mean/max 7/7.17/8
Step   800/2000   40.0% | t 40.000 | ETA 1m 55s | step 0.09s | KE 2238.6771 | drift -1.80% | fluid 74.4310 | solid 2164.2461
  Impulse FP iterations last/mean/max 7/7.17/8
Step   900/2000   45.0% | t 45.000 | ETA 1m 46s | step 0.09s | KE 2238.2425 | drift -1.82% | fluid 74.9344 | solid 2163.3082
  Impulse FP iterations last/mean/max 7/7.18/8
Step  1000/2000   50.0% | t 50.000 | ETA 1m 36s | step 0.10s | KE 2237.4916 | drift -1.85% | fluid 98.6936 | solid 2138.7980
  Impulse FP iterations last/mean/max 7/7.19/8
Step  1100/2000   55.0% | t 55.000 | ETA 1m 27s | step 0.10s | KE 2237.6134 | drift -1.85% | fluid 87.8276 | solid 2149.7858
  Impulse FP iterations last/mean/max 7/7.18/8
Step  1200/2000   60.0% | t 60.000 | ETA 1m 17s | step 0.09s | KE 2236.9716 | drift -1.88% | fluid 115.8208 | solid 2121.1509
  Impulse FP iterations last/mean/max 7/7.18/8
Step  1300/2000   65.0% | t 65.000 | ETA 1m 7s | step 0.10s | KE 2237.1431 | drift -1.87% | fluid 106.7355 | solid 2130.4075
  Impulse FP iterations last/mean/max 7/7.19/8
Step  1400/2000   70.0% | t 70.000 | ETA 58s | step 0.10s | KE 2237.7442 | drift -1.84% | fluid 74.4178 | solid 2163.3264
  Impulse FP iterations last/mean/max 7/7.18/8
Step  1500/2000   75.0% | t 75.000 | ETA 48s | step 0.10s | KE 2236.8449 | drift -1.88% | fluid 103.2627 | solid 2133.5822
  Impulse FP iterations last/mean/max 8/7.18/8
Step  1600/2000   80.0% | t 80.000 | ETA 38s | step 0.10s | KE 2237.6484 | drift -1.85% | fluid 81.2361 | solid 2156.4122
  Impulse FP iterations last/mean/max 7/7.18/8
Step  1700/2000   85.0% | t 85.000 | ETA 29s | step 0.10s | KE 2237.5306 | drift -1.85% | fluid 84.1311 | solid 2153.3995
  Impulse FP iterations last/mean/max 7/7.18/8
Step  1800/2000   90.0% | t 90.000 | ETA 19s | step 0.10s | KE 2236.5624 | drift -1.89% | fluid 117.3192 | solid 2119.2432
  Impulse FP iterations last/mean/max 7/7.18/8
Step  1900/2000   95.0% | t 95.000 | ETA 9s | step 0.09s | KE 2237.4881 | drift -1.85% | fluid 88.2464 | solid 2149.2417
  Impulse FP iterations last/mean/max 7/7.18/8
Solver finished successfully - good job!
Results saved successfully.

================== Run summary ==================
  Bodies:            2
  Triangles / nodes: 256 / 516
  Timesteps:         2000  (dt = 0.05)
  Simulated time:    0 -> 100
  First-step setup:  10.078 s
  Mean time/step:    0.0959 s  (excl. first step)
  Total wall time:   3m 21s
  Impulse FP iters last/mean/max: 7 / 7.184 / 8
  Approx impulse solves/step:     7.184
  Impulse start cache hits/direct: 1999 / 1
  Impulse global drift P/H:       1.801544e-9 / 1.610689e-2
  Impulse per-body max drift P/H: 3.314887e-9 / 2.814324e-3
  CPU cores:         256 available, 8 Rayon worker thread(s)
  Started:           2026-06-22 19:23:16
  Finished:          2026-06-22 19:26:39
  Output file:       /work/e643/e643/shared/multi_ellip/studies/two_body_paper_sweeps/runs/ellipsoid_1_0p8_0p6/ellipsoid_1_0p8_0p6_rho10_E0p55_sep5_run01_impulse_noproj/multiple_body_complete.dat
================================================
