
================ Simulation setup ================
  Run label:         /work/e643/e643/shared/multi_ellip/studies/two_body_paper_sweeps/runs/ellipsoid_1_0p8_0p6/ellipsoid_1_0p8_0p6_rho1_E1p5_sep5_run04_impulse_noproj/
  Started:           2026-06-24 01:38:55
  Input file:        /work/e643/e643/shared/multi_ellip/studies/two_body_paper_sweeps/runs/ellipsoid_1_0p8_0p6/ellipsoid_1_0p8_0p6_rho1_E1p5_sep5_run04_impulse_noproj/input.txt
  Output file:       /work/e643/e643/shared/multi_ellip/studies/two_body_paper_sweeps/runs/ellipsoid_1_0p8_0p6/ellipsoid_1_0p8_0p6_rho1_E1p5_sep5_run04_impulse_noproj/multiple_body_complete.dat
  Bodies:            2
  Fluid density:     1
  Mesh:              ndiv 2 -> 256 triangles / 516 nodes
  Simulated time:    0 -> 100  (dt = 0.05, ~2000 steps)
  Output cadence:    every 1 step(s)
  Output rows:       ~2001
  Progress cadence:  every 100 step(s)
  CPU cores:         256 available, 8 Rayon worker thread(s)
  Strong coupling:   disabled
  Impulse scheme:    enabled
  Hamiltonian step:  disabled
  Hamiltonian midpt: disabled
  Variational step:  disabled
  Energy projection: disabled
  Projection particular metric: Euclidean
  Fluid KE gradient: disabled  (eps = 0.001, scale = 1, linear = 1, angular = 1)
  Fluid KE discrete gradient: disabled
  Impulse pair metric correction: disabled  (mode = pair discrete-gradient, cutoff = all pairs, inner/outer = 0/0, eps = 0.001, linear scale = 1, angular scale = 0)
  Impulse metric correction: disabled  (internal load constraint = disabled)
  Impulse variational defect probe: disabled
  Impulse quadratic pressure: disabled  (scale = 1)
  Added-mass stab:   disabled
  Exact BEM geometry: disabled
  Exact singular BEM: disabled
  Legacy singular SLP diagnostic: disabled
  Phi-dot blend:     0 (off)

  Solver guidance:
    - Strong coupling: use for stiff close-coupled runs; slower but more implicit.
    - Impulse scheme: use when impulse/momentum conservation or KE drift is the focus. Recommended.
    - Added-mass stab: use for higher mesh counts (ndiv > 3) to preserve stability - deprecated.
================================================
Solver starting - good luck!

Initial state:
  Body  1
    density:          1.000000
    shape axes ratio: (1.000000, 0.800000, 0.600000)
    initial KE ratio: 1.500000
    position:         (-2.500000, 0.000000, 0.000000)
    velocity:         (-1.532117, -0.668993, -2.905975)
    angular velocity: (3.757372, 3.794268, 3.311210)
    orientation:      (w=-0.602652, i=-0.246267, j=-0.691391, k=0.313276)
  Body  2
    density:          1.000000
    shape axes ratio: (1.000000, 0.800000, 0.600000)
    initial KE ratio: 1.500000
    position:         (2.500000, 0.000000, 0.000000)
    velocity:         (-1.353693, -0.591084, -2.567555)
    angular velocity: (-6.137951, -1.018457, 0.875628)
    orientation:      (w=0.195527, i=-0.050971, j=-0.975471, k=-0.087338)

Preparing first step: implicit scheme, no bootstrap passes required.
First step may take longer than later steps.

First step completed in 0.290 s.

Step   100/2000    5.0% | t 5.000 | ETA 4m 54s | step 0.16s | KE 141.3767 | drift +5.76% | fluid 28.4454 | solid 112.9313
  Impulse FP iterations last/mean/max 11/11.21/12
Step   200/2000   10.0% | t 10.000 | ETA 4m 47s | step 0.16s | KE 142.4167 | drift +6.53% | fluid 31.8075 | solid 110.6092
  Impulse FP iterations last/mean/max 11/11.23/12
Step   300/2000   15.0% | t 15.000 | ETA 4m 32s | step 0.17s | KE 142.3230 | drift +6.46% | fluid 33.1250 | solid 109.1980
  Impulse FP iterations last/mean/max 11/11.19/12
Step   400/2000   20.0% | t 20.000 | ETA 4m 17s | step 0.17s | KE 144.0932 | drift +7.79% | fluid 27.4528 | solid 116.6404
  Impulse FP iterations last/mean/max 11/11.18/12
Step   500/2000   25.0% | t 25.000 | ETA 4m 1s | step 0.16s | KE 144.8684 | drift +8.37% | fluid 30.1358 | solid 114.7326
  Impulse FP iterations last/mean/max 11/11.17/12
Step   600/2000   30.0% | t 30.000 | ETA 3m 44s | step 0.17s | KE 144.9714 | drift +8.44% | fluid 29.4859 | solid 115.4855
  Impulse FP iterations last/mean/max 11/11.15/12
Step   700/2000   35.0% | t 35.000 | ETA 3m 28s | step 0.17s | KE 145.2329 | drift +8.64% | fluid 31.1149 | solid 114.1180
  Impulse FP iterations last/mean/max 11/11.14/12
Step   800/2000   40.0% | t 40.000 | ETA 3m 12s | step 0.16s | KE 145.2731 | drift +8.67% | fluid 27.3109 | solid 117.9621
  Impulse FP iterations last/mean/max 11/11.12/12
Step   900/2000   45.0% | t 45.000 | ETA 2m 55s | step 0.16s | KE 145.2294 | drift +8.64% | fluid 29.4392 | solid 115.7902
  Impulse FP iterations last/mean/max 11/11.11/12
Step  1000/2000   50.0% | t 50.000 | ETA 2m 39s | step 0.15s | KE 144.9497 | drift +8.43% | fluid 27.9649 | solid 116.9848
  Impulse FP iterations last/mean/max 11/11.11/12
Step  1100/2000   55.0% | t 55.000 | ETA 2m 22s | step 0.14s | KE 144.9787 | drift +8.45% | fluid 31.6594 | solid 113.3193
  Impulse FP iterations last/mean/max 11/11.10/12
Step  1200/2000   60.0% | t 60.000 | ETA 2m 5s | step 0.13s | KE 145.0570 | drift +8.51% | fluid 25.1422 | solid 119.9148
  Impulse FP iterations last/mean/max 10/11.09/12
Step  1300/2000   65.0% | t 65.000 | ETA 1m 48s | step 0.14s | KE 144.9631 | drift +8.44% | fluid 30.0201 | solid 114.9429
  Impulse FP iterations last/mean/max 11/11.09/12
Step  1400/2000   70.0% | t 70.000 | ETA 1m 33s | step 0.15s | KE 144.7964 | drift +8.31% | fluid 27.9435 | solid 116.8529
  Impulse FP iterations last/mean/max 11/11.09/12
Step  1500/2000   75.0% | t 75.000 | ETA 1m 17s | step 0.16s | KE 144.9906 | drift +8.46% | fluid 28.9001 | solid 116.0905
  Impulse FP iterations last/mean/max 11/11.09/12
Step  1600/2000   80.0% | t 80.000 | ETA 1m 2s | step 0.14s | KE 145.0814 | drift +8.53% | fluid 26.3138 | solid 118.7677
  Impulse FP iterations last/mean/max 10/11.09/12
Step  1700/2000   85.0% | t 85.000 | ETA 46s | step 0.17s | KE 144.9403 | drift +8.42% | fluid 30.4571 | solid 114.4832
  Impulse FP iterations last/mean/max 11/11.08/12
Step  1800/2000   90.0% | t 90.000 | ETA 31s | step 0.17s | KE 144.8955 | drift +8.39% | fluid 27.0141 | solid 117.8814
  Impulse FP iterations last/mean/max 11/11.08/12
Step  1900/2000   95.0% | t 95.000 | ETA 15s | step 0.16s | KE 145.0499 | drift +8.50% | fluid 30.4379 | solid 114.6120
  Impulse FP iterations last/mean/max 11/11.08/12
Solver finished successfully - good job!
Results saved successfully.

================== Run summary ==================
  Bodies:            2
  Triangles / nodes: 256 / 516
  Timesteps:         2000  (dt = 0.05)
  Simulated time:    0 -> 100
  First-step setup:  0.290 s
  Mean time/step:    0.1557 s  (excl. first step)
  Total wall time:   5m 11s
  Impulse FP iters last/mean/max: 11 / 11.079 / 12
  Approx impulse solves/step:     11.079
  Impulse start cache hits/direct: 1999 / 1
  Impulse global drift P/H:       4.133738e-9 / 2.054346e-2
  Impulse per-body max drift P/H: 9.660250e-9 / 5.653548e-3
  CPU cores:         256 available, 8 Rayon worker thread(s)
  Started:           2026-06-24 01:38:55
  Finished:          2026-06-24 01:44:07
  Output file:       /work/e643/e643/shared/multi_ellip/studies/two_body_paper_sweeps/runs/ellipsoid_1_0p8_0p6/ellipsoid_1_0p8_0p6_rho1_E1p5_sep5_run04_impulse_noproj/multiple_body_complete.dat
================================================
