
================ Simulation setup ================
  Run label:         /work/e643/e643/shared/multi_ellip/studies/two_body_paper_sweeps/runs/spheroid_1_0p7_0p7/spheroid_1_0p7_0p7_rho10_E4_sep5_run03_impulse_noproj/
  Started:           2026-06-24 01:18:35
  Input file:        /work/e643/e643/shared/multi_ellip/studies/two_body_paper_sweeps/runs/spheroid_1_0p7_0p7/spheroid_1_0p7_0p7_rho10_E4_sep5_run03_impulse_noproj/input.txt
  Output file:       /work/e643/e643/shared/multi_ellip/studies/two_body_paper_sweeps/runs/spheroid_1_0p7_0p7/spheroid_1_0p7_0p7_rho10_E4_sep5_run03_impulse_noproj/multiple_body_complete.dat
  Bodies:            2
  Fluid density:     1
  Mesh:              ndiv 2 -> 256 triangles / 516 nodes
  Simulated time:    0 -> 100  (dt = 0.05, ~2000 steps)
  Output cadence:    every 1 step(s)
  Output rows:       ~2001
  Progress cadence:  every 100 step(s)
  CPU cores:         256 available, 8 Rayon worker thread(s)
  Strong coupling:   disabled
  Impulse scheme:    enabled
  Hamiltonian step:  disabled
  Hamiltonian midpt: disabled
  Variational step:  disabled
  Energy projection: disabled
  Projection particular metric: Euclidean
  Fluid KE gradient: disabled  (eps = 0.001, scale = 1, linear = 1, angular = 1)
  Fluid KE discrete gradient: disabled
  Impulse pair metric correction: disabled  (mode = pair discrete-gradient, cutoff = all pairs, inner/outer = 0/0, eps = 0.001, linear scale = 1, angular scale = 0)
  Impulse metric correction: disabled  (internal load constraint = disabled)
  Impulse variational defect probe: disabled
  Impulse quadratic pressure: disabled  (scale = 1)
  Added-mass stab:   disabled
  Exact BEM geometry: disabled
  Exact singular BEM: disabled
  Legacy singular SLP diagnostic: disabled
  Phi-dot blend:     0 (off)

  Solver guidance:
    - Strong coupling: use for stiff close-coupled runs; slower but more implicit.
    - Impulse scheme: use when impulse/momentum conservation or KE drift is the focus. Recommended.
    - Added-mass stab: use for higher mesh counts (ndiv > 3) to preserve stability - deprecated.
================================================
Solver starting - good luck!

Initial state:
  Body  1
    density:          10.000000
    shape axes ratio: (1.000000, 0.700000, 0.700000)
    initial KE ratio: 4.000000
    position:         (-2.500000, 0.000000, 0.000000)
    velocity:         (2.135030, 0.316767, -0.231231)
    angular velocity: (0.696770, -1.303660, -6.106832)
    orientation:      (w=-0.206593, i=-0.469542, j=0.262906, k=-0.817148)
  Body  2
    density:          10.000000
    shape axes ratio: (1.000000, 0.700000, 0.700000)
    initial KE ratio: 4.000000
    position:         (2.500000, 0.000000, 0.000000)
    velocity:         (2.075873, 0.307990, -0.224825)
    angular velocity: (-2.600367, 0.221083, 5.715561)
    orientation:      (w=0.350153, i=-0.206447, j=0.904070, k=0.132023)

Preparing first step: implicit scheme, no bootstrap passes required.
First step may take longer than later steps.

First step completed in 0.228 s.

Step   100/2000    5.0% | t 5.000 | ETA 2m 46s | step 0.10s | KE 866.1437 | drift +0.06% | fluid 14.8664 | solid 851.2774
  Impulse FP iterations last/mean/max 7/6.42/7
Step   200/2000   10.0% | t 10.000 | ETA 2m 41s | step 0.10s | KE 866.8610 | drift +0.14% | fluid 14.1932 | solid 852.6678
  Impulse FP iterations last/mean/max 7/6.43/7
Step   300/2000   15.0% | t 15.000 | ETA 2m 34s | step 0.09s | KE 867.5917 | drift +0.22% | fluid 13.4289 | solid 854.1629
  Impulse FP iterations last/mean/max 6/6.47/7
Step   400/2000   20.0% | t 20.000 | ETA 2m 27s | step 0.10s | KE 868.1298 | drift +0.29% | fluid 14.4452 | solid 853.6845
  Impulse FP iterations last/mean/max 7/6.50/7
Step   500/2000   25.0% | t 25.000 | ETA 2m 19s | step 0.10s | KE 868.6503 | drift +0.35% | fluid 14.6463 | solid 854.0040
  Impulse FP iterations last/mean/max 7/6.56/7
Step   600/2000   30.0% | t 30.000 | ETA 2m 11s | step 0.10s | KE 869.0142 | drift +0.39% | fluid 12.7442 | solid 856.2700
  Impulse FP iterations last/mean/max 7/6.59/7
Step   700/2000   35.0% | t 35.000 | ETA 2m 3s | step 0.10s | KE 868.5828 | drift +0.34% | fluid 15.2518 | solid 853.3311
  Impulse FP iterations last/mean/max 7/6.63/7
Step   800/2000   40.0% | t 40.000 | ETA 1m 54s | step 0.10s | KE 868.4837 | drift +0.33% | fluid 14.6207 | solid 853.8630
  Impulse FP iterations last/mean/max 7/6.67/7
Step   900/2000   45.0% | t 45.000 | ETA 1m 45s | step 0.10s | KE 868.3932 | drift +0.32% | fluid 14.0712 | solid 854.3220
  Impulse FP iterations last/mean/max 7/6.71/7
Step  1000/2000   50.0% | t 50.000 | ETA 1m 36s | step 0.10s | KE 869.6063 | drift +0.46% | fluid 13.9527 | solid 855.6536
  Impulse FP iterations last/mean/max 7/6.74/7
Step  1100/2000   55.0% | t 55.000 | ETA 1m 27s | step 0.09s | KE 871.8112 | drift +0.71% | fluid 14.2629 | solid 857.5483
  Impulse FP iterations last/mean/max 7/6.76/7
Step  1200/2000   60.0% | t 60.000 | ETA 1m 17s | step 0.10s | KE 874.5735 | drift +1.03% | fluid 15.1939 | solid 859.3796
  Impulse FP iterations last/mean/max 7/6.78/7
Step  1300/2000   65.0% | t 65.000 | ETA 1m 8s | step 0.10s | KE 878.3959 | drift +1.47% | fluid 14.7001 | solid 863.6958
  Impulse FP iterations last/mean/max 7/6.79/8
Step  1400/2000   70.0% | t 70.000 | ETA 58s | step 0.10s | KE 881.7556 | drift +1.86% | fluid 14.4022 | solid 867.3533
  Impulse FP iterations last/mean/max 7/6.80/8
Step  1500/2000   75.0% | t 75.000 | ETA 48s | step 0.10s | KE 884.3065 | drift +2.16% | fluid 15.0160 | solid 869.2906
  Impulse FP iterations last/mean/max 7/6.81/8
Step  1600/2000   80.0% | t 80.000 | ETA 39s | step 0.10s | KE 886.1268 | drift +2.37% | fluid 15.2066 | solid 870.9202
  Impulse FP iterations last/mean/max 7/6.80/8
Step  1700/2000   85.0% | t 85.000 | ETA 29s | step 0.10s | KE 887.0629 | drift +2.47% | fluid 14.9818 | solid 872.0810
  Impulse FP iterations last/mean/max 7/6.79/8
Step  1800/2000   90.0% | t 90.000 | ETA 19s | step 0.09s | KE 887.6610 | drift +2.54% | fluid 14.4666 | solid 873.1944
  Impulse FP iterations last/mean/max 7/6.77/8
Step  1900/2000   95.0% | t 95.000 | ETA 9s | step 0.08s | KE 887.8863 | drift +2.57% | fluid 14.1154 | solid 873.7710
  Impulse FP iterations last/mean/max 6/6.75/8
Solver finished successfully - good job!
Results saved successfully.

================== Run summary ==================
  Bodies:            2
  Triangles / nodes: 256 / 516
  Timesteps:         2000  (dt = 0.05)
  Simulated time:    0 -> 100
  First-step setup:  0.228 s
  Mean time/step:    0.0953 s  (excl. first step)
  Total wall time:   3m 10s
  Impulse FP iters last/mean/max: 6 / 6.729 / 8
  Approx impulse solves/step:     6.729
  Impulse start cache hits/direct: 1999 / 1
  Impulse global drift P/H:       2.848522e-9 / 1.625333e-2
  Impulse per-body max drift P/H: 7.873461e-9 / 7.010954e-3
  CPU cores:         256 available, 8 Rayon worker thread(s)
  Started:           2026-06-24 01:18:35
  Finished:          2026-06-24 01:21:46
  Output file:       /work/e643/e643/shared/multi_ellip/studies/two_body_paper_sweeps/runs/spheroid_1_0p7_0p7/spheroid_1_0p7_0p7_rho10_E4_sep5_run03_impulse_noproj/multiple_body_complete.dat
================================================
