
================ Simulation setup ================
  Run label:         /work/e643/e643/shared/multi_ellip/studies/two_body_paper_sweeps/runs/spheroid_1_0p7_0p7/spheroid_1_0p7_0p7_rho1_E30_sep5_run01_impulse_noproj/
  Started:           2026-06-22 19:39:26
  Input file:        /work/e643/e643/shared/multi_ellip/studies/two_body_paper_sweeps/runs/spheroid_1_0p7_0p7/spheroid_1_0p7_0p7_rho1_E30_sep5_run01_impulse_noproj/input.txt
  Output file:       /work/e643/e643/shared/multi_ellip/studies/two_body_paper_sweeps/runs/spheroid_1_0p7_0p7/spheroid_1_0p7_0p7_rho1_E30_sep5_run01_impulse_noproj/multiple_body_complete.dat
  Bodies:            2
  Fluid density:     1
  Mesh:              ndiv 2 -> 256 triangles / 516 nodes
  Simulated time:    0 -> 100  (dt = 0.05, ~2000 steps)
  Output cadence:    every 1 step(s)
  Output rows:       ~2001
  Progress cadence:  every 100 step(s)
  CPU cores:         256 available, 8 Rayon worker thread(s)
  Strong coupling:   disabled
  Impulse scheme:    enabled
  Hamiltonian step:  disabled
  Hamiltonian midpt: disabled
  Variational step:  disabled
  Energy projection: disabled
  Projection particular metric: Euclidean
  Fluid KE gradient: disabled  (eps = 0.001, scale = 1, linear = 1, angular = 1)
  Fluid KE discrete gradient: disabled
  Impulse pair metric correction: disabled  (mode = pair discrete-gradient, cutoff = all pairs, inner/outer = 0/0, eps = 0.001, linear scale = 1, angular scale = 0)
  Impulse metric correction: disabled  (internal load constraint = disabled)
  Impulse variational defect probe: disabled
  Impulse quadratic pressure: disabled  (scale = 1)
  Added-mass stab:   disabled
  Exact BEM geometry: disabled
  Exact singular BEM: disabled
  Legacy singular SLP diagnostic: disabled
  Phi-dot blend:     0 (off)

  Solver guidance:
    - Strong coupling: use for stiff close-coupled runs; slower but more implicit.
    - Impulse scheme: use when impulse/momentum conservation or KE drift is the focus. Recommended.
    - Added-mass stab: use for higher mesh counts (ndiv > 3) to preserve stability - deprecated.
================================================
Solver starting - good luck!

Initial state:
  Body  1
    density:          1.000000
    shape axes ratio: (1.000000, 0.700000, 0.700000)
    initial KE ratio: 30.000000
    position:         (-2.500000, 0.000000, 0.000000)
    velocity:         (-0.196334, 0.703482, -0.183008)
    angular velocity: (3.420907, 4.276154, -3.080635)
    orientation:      (w=0.447214, i=0.894427, j=0.000000, k=0.000000)
  Body  2
    density:          1.000000
    shape axes ratio: (1.000000, 0.700000, 0.700000)
    initial KE ratio: 30.000000
    position:         (2.500000, 0.000000, 0.000000)
    velocity:         (-0.204218, 0.731733, -0.190357)
    angular velocity: (-1.792138, 1.691290, 5.779810)
    orientation:      (w=0.707107, i=0.000000, j=0.707107, k=0.000000)

Preparing first step: implicit scheme, no bootstrap passes required.
First step may take longer than later steps.

First step completed in 0.254 s.

Step   100/2000    5.0% | t 5.000 | ETA 4m 15s | step 0.13s | KE 70.8262 | drift +0.24% | fluid 4.1811 | solid 66.6451
  Impulse FP iterations last/mean/max 9/9.37/10
Step   200/2000   10.0% | t 10.000 | ETA 4m 4s | step 0.14s | KE 70.9850 | drift +0.46% | fluid 4.4043 | solid 66.5807
  Impulse FP iterations last/mean/max 9/9.39/10
Step   300/2000   15.0% | t 15.000 | ETA 3m 51s | step 0.13s | KE 71.1858 | drift +0.75% | fluid 4.2095 | solid 66.9764
  Impulse FP iterations last/mean/max 9/9.40/10
Step   400/2000   20.0% | t 20.000 | ETA 3m 35s | step 0.13s | KE 71.3430 | drift +0.97% | fluid 4.4199 | solid 66.9231
  Impulse FP iterations last/mean/max 9/9.41/10
Step   500/2000   25.0% | t 25.000 | ETA 3m 17s | step 0.12s | KE 71.5193 | drift +1.22% | fluid 4.2488 | solid 67.2704
  Impulse FP iterations last/mean/max 9/9.42/10
Step   600/2000   30.0% | t 30.000 | ETA 3m 3s | step 0.12s | KE 71.6262 | drift +1.37% | fluid 4.4283 | solid 67.1979
  Impulse FP iterations last/mean/max 9/9.43/10
Step   700/2000   35.0% | t 35.000 | ETA 2m 51s | step 0.14s | KE 71.7328 | drift +1.52% | fluid 4.3024 | solid 67.4304
  Impulse FP iterations last/mean/max 10/9.44/10
Step   800/2000   40.0% | t 40.000 | ETA 2m 38s | step 0.13s | KE 71.7704 | drift +1.57% | fluid 4.4201 | solid 67.3503
  Impulse FP iterations last/mean/max 9/9.44/10
Step   900/2000   45.0% | t 45.000 | ETA 2m 25s | step 0.13s | KE 71.8016 | drift +1.62% | fluid 4.3871 | solid 67.4145
  Impulse FP iterations last/mean/max 10/9.44/10
Step  1000/2000   50.0% | t 50.000 | ETA 2m 12s | step 0.14s | KE 71.8006 | drift +1.62% | fluid 4.3694 | solid 67.4311
  Impulse FP iterations last/mean/max 9/9.43/10
Step  1100/2000   55.0% | t 55.000 | ETA 1m 59s | step 0.13s | KE 71.7908 | drift +1.60% | fluid 4.4388 | solid 67.3519
  Impulse FP iterations last/mean/max 10/9.42/10
Step  1200/2000   60.0% | t 60.000 | ETA 1m 46s | step 0.13s | KE 71.7871 | drift +1.60% | fluid 4.2667 | solid 67.5204
  Impulse FP iterations last/mean/max 9/9.41/10
Step  1300/2000   65.0% | t 65.000 | ETA 1m 32s | step 0.13s | KE 71.7798 | drift +1.59% | fluid 4.4221 | solid 67.3578
  Impulse FP iterations last/mean/max 9/9.39/10
Step  1400/2000   70.0% | t 70.000 | ETA 1m 19s | step 0.13s | KE 71.7849 | drift +1.59% | fluid 4.2082 | solid 67.5766
  Impulse FP iterations last/mean/max 9/9.38/10
Step  1500/2000   75.0% | t 75.000 | ETA 1m 6s | step 0.14s | KE 71.7866 | drift +1.60% | fluid 4.4266 | solid 67.3600
  Impulse FP iterations last/mean/max 9/9.36/10
Step  1600/2000   80.0% | t 80.000 | ETA 52s | step 0.12s | KE 71.8002 | drift +1.62% | fluid 4.3035 | solid 67.4967
  Impulse FP iterations last/mean/max 9/9.35/10
Step  1700/2000   85.0% | t 85.000 | ETA 39s | step 0.14s | KE 71.8119 | drift +1.63% | fluid 4.4486 | solid 67.3633
  Impulse FP iterations last/mean/max 10/9.33/10
Step  1800/2000   90.0% | t 90.000 | ETA 26s | step 0.14s | KE 71.8344 | drift +1.66% | fluid 4.4370 | solid 67.3974
  Impulse FP iterations last/mean/max 9/9.32/10
Step  1900/2000   95.0% | t 95.000 | ETA 13s | step 0.11s | KE 71.8649 | drift +1.71% | fluid 4.3517 | solid 67.5132
  Impulse FP iterations last/mean/max 9/9.30/10
Solver finished successfully - good job!
Results saved successfully.

================== Run summary ==================
  Bodies:            2
  Triangles / nodes: 256 / 516
  Timesteps:         2000  (dt = 0.05)
  Simulated time:    0 -> 100
  First-step setup:  0.254 s
  Mean time/step:    0.1303 s  (excl. first step)
  Total wall time:   4m 20s
  Impulse FP iters last/mean/max: 9 / 9.284 / 10
  Approx impulse solves/step:     9.285
  Impulse start cache hits/direct: 1999 / 1
  Impulse global drift P/H:       7.418264e-8 / 1.424405e-2
  Impulse per-body max drift P/H: 1.349620e-7 / 1.140012e-2
  CPU cores:         256 available, 8 Rayon worker thread(s)
  Started:           2026-06-22 19:39:26
  Finished:          2026-06-22 19:43:47
  Output file:       /work/e643/e643/shared/multi_ellip/studies/two_body_paper_sweeps/runs/spheroid_1_0p7_0p7/spheroid_1_0p7_0p7_rho1_E30_sep5_run01_impulse_noproj/multiple_body_complete.dat
================================================
