
================ Simulation setup ================
  Run label:         /work/e643/e643/shared/multi_ellip/studies/two_body_paper_sweeps/runs/spheroid_1_0p7_0p7/spheroid_1_0p7_0p7_rho4_E4_sep11_run02_impulse_noproj/
  Started:           2026-06-22 19:30:32
  Input file:        /work/e643/e643/shared/multi_ellip/studies/two_body_paper_sweeps/runs/spheroid_1_0p7_0p7/spheroid_1_0p7_0p7_rho4_E4_sep11_run02_impulse_noproj/input.txt
  Output file:       /work/e643/e643/shared/multi_ellip/studies/two_body_paper_sweeps/runs/spheroid_1_0p7_0p7/spheroid_1_0p7_0p7_rho4_E4_sep11_run02_impulse_noproj/multiple_body_complete.dat
  Bodies:            2
  Fluid density:     1
  Mesh:              ndiv 2 -> 256 triangles / 516 nodes
  Simulated time:    0 -> 100  (dt = 0.05, ~2000 steps)
  Output cadence:    every 1 step(s)
  Output rows:       ~2001
  Progress cadence:  every 100 step(s)
  CPU cores:         256 available, 8 Rayon worker thread(s)
  Strong coupling:   disabled
  Impulse scheme:    enabled
  Hamiltonian step:  disabled
  Hamiltonian midpt: disabled
  Variational step:  disabled
  Energy projection: disabled
  Projection particular metric: Euclidean
  Fluid KE gradient: disabled  (eps = 0.001, scale = 1, linear = 1, angular = 1)
  Fluid KE discrete gradient: disabled
  Impulse pair metric correction: disabled  (mode = pair discrete-gradient, cutoff = all pairs, inner/outer = 0/0, eps = 0.001, linear scale = 1, angular scale = 0)
  Impulse metric correction: disabled  (internal load constraint = disabled)
  Impulse variational defect probe: disabled
  Impulse quadratic pressure: disabled  (scale = 1)
  Added-mass stab:   disabled
  Exact BEM geometry: disabled
  Exact singular BEM: disabled
  Legacy singular SLP diagnostic: disabled
  Phi-dot blend:     0 (off)

  Solver guidance:
    - Strong coupling: use for stiff close-coupled runs; slower but more implicit.
    - Impulse scheme: use when impulse/momentum conservation or KE drift is the focus. Recommended.
    - Added-mass stab: use for higher mesh counts (ndiv > 3) to preserve stability - deprecated.
================================================
Solver starting - good luck!

Initial state:
  Body  1
    density:          4.000000
    shape axes ratio: (1.000000, 0.700000, 0.700000)
    initial KE ratio: 4.000000
    position:         (-5.500000, 0.000000, 0.000000)
    velocity:         (-0.782642, 0.292116, -1.759402)
    angular velocity: (4.783335, -3.531712, 2.031044)
    orientation:      (w=0.577350, i=0.577350, j=0.577350, k=0.000000)
  Body  2
    density:          4.000000
    shape axes ratio: (1.000000, 0.700000, 0.700000)
    initial KE ratio: 4.000000
    position:         (5.500000, 0.000000, 0.000000)
    velocity:         (-0.853218, 0.318458, -1.918059)
    angular velocity: (-2.335216, 5.832660, -0.072575)
    orientation:      (w=0.577350, i=-0.577350, j=0.000000, k=0.577350)

Preparing first step: implicit scheme, no bootstrap passes required.
First step may take longer than later steps.

First step completed in 0.234 s.

Step   100/2000    5.0% | t 5.000 | ETA 2m 55s | step 0.09s | KE 382.2231 | drift +0.06% | fluid 13.3087 | solid 368.9143
  Impulse FP iterations last/mean/max 7/7.02/8
Step   200/2000   10.0% | t 10.000 | ETA 2m 52s | step 0.09s | KE 382.3030 | drift +0.09% | fluid 13.9167 | solid 368.3863
  Impulse FP iterations last/mean/max 7/7.01/8
Step   300/2000   15.0% | t 15.000 | ETA 2m 45s | step 0.10s | KE 382.3139 | drift +0.09% | fluid 16.2894 | solid 366.0245
  Impulse FP iterations last/mean/max 7/7.02/8
Step   400/2000   20.0% | t 20.000 | ETA 2m 37s | step 0.10s | KE 382.4015 | drift +0.11% | fluid 15.3829 | solid 367.0186
  Impulse FP iterations last/mean/max 7/7.04/8
Step   500/2000   25.0% | t 25.000 | ETA 2m 28s | step 0.10s | KE 382.4418 | drift +0.12% | fluid 14.0667 | solid 368.3752
  Impulse FP iterations last/mean/max 7/7.03/8
Step   600/2000   30.0% | t 30.000 | ETA 2m 19s | step 0.10s | KE 382.4128 | drift +0.11% | fluid 14.8949 | solid 367.5179
  Impulse FP iterations last/mean/max 7/7.03/8
Step   700/2000   35.0% | t 35.000 | ETA 2m 9s | step 0.10s | KE 382.3925 | drift +0.11% | fluid 14.7568 | solid 367.6357
  Impulse FP iterations last/mean/max 7/7.03/8
Step   800/2000   40.0% | t 40.000 | ETA 2m 0s | step 0.11s | KE 382.3884 | drift +0.11% | fluid 14.7977 | solid 367.5907
  Impulse FP iterations last/mean/max 7/7.03/8
Step   900/2000   45.0% | t 45.000 | ETA 1m 50s | step 0.10s | KE 382.4190 | drift +0.12% | fluid 14.7562 | solid 367.6628
  Impulse FP iterations last/mean/max 7/7.02/8
Step  1000/2000   50.0% | t 50.000 | ETA 1m 40s | step 0.10s | KE 382.4094 | drift +0.11% | fluid 14.0988 | solid 368.3106
  Impulse FP iterations last/mean/max 7/7.02/8
Step  1100/2000   55.0% | t 55.000 | ETA 1m 30s | step 0.10s | KE 382.3086 | drift +0.09% | fluid 16.0093 | solid 366.2992
  Impulse FP iterations last/mean/max 7/7.02/8
Step  1200/2000   60.0% | t 60.000 | ETA 1m 20s | step 0.10s | KE 382.2451 | drift +0.07% | fluid 16.1549 | solid 366.0902
  Impulse FP iterations last/mean/max 7/7.02/8
Step  1300/2000   65.0% | t 65.000 | ETA 1m 10s | step 0.11s | KE 382.2700 | drift +0.08% | fluid 13.4156 | solid 368.8544
  Impulse FP iterations last/mean/max 7/7.02/8
Step  1400/2000   70.0% | t 70.000 | ETA 1m 0s | step 0.10s | KE 382.2356 | drift +0.07% | fluid 13.2800 | solid 368.9556
  Impulse FP iterations last/mean/max 7/7.02/8
Step  1500/2000   75.0% | t 75.000 | ETA 50s | step 0.10s | KE 382.0857 | drift +0.03% | fluid 14.7944 | solid 367.2913
  Impulse FP iterations last/mean/max 7/7.02/8
Step  1600/2000   80.0% | t 80.000 | ETA 40s | step 0.10s | KE 381.9736 | drift -0.00% | fluid 16.3539 | solid 365.6198
  Impulse FP iterations last/mean/max 7/7.01/8
Step  1700/2000   85.0% | t 85.000 | ETA 30s | step 0.10s | KE 381.9475 | drift -0.01% | fluid 15.4997 | solid 366.4478
  Impulse FP iterations last/mean/max 7/7.02/8
Step  1800/2000   90.0% | t 90.000 | ETA 20s | step 0.10s | KE 381.9031 | drift -0.02% | fluid 14.2076 | solid 367.6955
  Impulse FP iterations last/mean/max 7/7.01/8
Step  1900/2000   95.0% | t 95.000 | ETA 10s | step 0.10s | KE 381.8200 | drift -0.04% | fluid 14.7239 | solid 367.0962
  Impulse FP iterations last/mean/max 7/7.01/8
Solver finished successfully - good job!
Results saved successfully.

================== Run summary ==================
  Bodies:            2
  Triangles / nodes: 256 / 516
  Timesteps:         2000  (dt = 0.05)
  Simulated time:    0 -> 100
  First-step setup:  0.234 s
  Mean time/step:    0.1005 s  (excl. first step)
  Total wall time:   3m 21s
  Impulse FP iters last/mean/max: 7 / 7.013 / 8
  Approx impulse solves/step:     7.014
  Impulse start cache hits/direct: 1999 / 1
  Impulse global drift P/H:       5.169225e-9 / 2.514291e-2
  Impulse per-body max drift P/H: 1.174494e-8 / 4.073919e-3
  CPU cores:         256 available, 8 Rayon worker thread(s)
  Started:           2026-06-22 19:30:32
  Finished:          2026-06-22 19:33:53
  Output file:       /work/e643/e643/shared/multi_ellip/studies/two_body_paper_sweeps/runs/spheroid_1_0p7_0p7/spheroid_1_0p7_0p7_rho4_E4_sep11_run02_impulse_noproj/multiple_body_complete.dat
================================================
