
================ Simulation setup ================
  Run label:         /work/e643/e643/shared/multi_ellip/studies/two_body_paper_sweeps/runs/ellipsoid_1_0p8_0p6/ellipsoid_1_0p8_0p6_rho0p3_E0p55_sep8_run01_impulse_noproj/
  Started:           2026-06-22 19:40:06
  Input file:        /work/e643/e643/shared/multi_ellip/studies/two_body_paper_sweeps/runs/ellipsoid_1_0p8_0p6/ellipsoid_1_0p8_0p6_rho0p3_E0p55_sep8_run01_impulse_noproj/input.txt
  Output file:       /work/e643/e643/shared/multi_ellip/studies/two_body_paper_sweeps/runs/ellipsoid_1_0p8_0p6/ellipsoid_1_0p8_0p6_rho0p3_E0p55_sep8_run01_impulse_noproj/multiple_body_complete.dat
  Bodies:            2
  Fluid density:     1
  Mesh:              ndiv 2 -> 256 triangles / 516 nodes
  Simulated time:    0 -> 100  (dt = 0.05, ~2000 steps)
  Output cadence:    every 1 step(s)
  Output rows:       ~2001
  Progress cadence:  every 100 step(s)
  CPU cores:         256 available, 8 Rayon worker thread(s)
  Strong coupling:   disabled
  Impulse scheme:    enabled
  Hamiltonian step:  disabled
  Hamiltonian midpt: disabled
  Variational step:  disabled
  Energy projection: disabled
  Projection particular metric: Euclidean
  Fluid KE gradient: disabled  (eps = 0.001, scale = 1, linear = 1, angular = 1)
  Fluid KE discrete gradient: disabled
  Impulse pair metric correction: disabled  (mode = pair discrete-gradient, cutoff = all pairs, inner/outer = 0/0, eps = 0.001, linear scale = 1, angular scale = 0)
  Impulse metric correction: disabled  (internal load constraint = disabled)
  Impulse variational defect probe: disabled
  Impulse quadratic pressure: disabled  (scale = 1)
  Added-mass stab:   disabled
  Exact BEM geometry: disabled
  Exact singular BEM: disabled
  Legacy singular SLP diagnostic: disabled
  Phi-dot blend:     0 (off)

  Solver guidance:
    - Strong coupling: use for stiff close-coupled runs; slower but more implicit.
    - Impulse scheme: use when impulse/momentum conservation or KE drift is the focus. Recommended.
    - Added-mass stab: use for higher mesh counts (ndiv > 3) to preserve stability - deprecated.
================================================
Solver starting - good luck!

Initial state:
  Body  1
    density:          0.300000
    shape axes ratio: (1.000000, 0.800000, 0.600000)
    initial KE ratio: 0.550000
    position:         (-4.000000, 0.000000, 0.000000)
    velocity:         (-2.087463, -2.896202, -4.241895)
    angular velocity: (-2.990116, -5.070903, 2.196261)
    orientation:      (w=0.447214, i=0.894427, j=0.000000, k=0.000000)
  Body  2
    density:          0.300000
    shape axes ratio: (1.000000, 0.800000, 0.600000)
    initial KE ratio: 0.550000
    position:         (4.000000, 0.000000, 0.000000)
    velocity:         (-2.304119, -3.196796, -4.682158)
    angular velocity: (-0.735309, 2.121763, 5.868208)
    orientation:      (w=0.707107, i=0.000000, j=0.707107, k=0.000000)

Preparing first step: implicit scheme, no bootstrap passes required.
First step may take longer than later steps.

First step completed in 0.397 s.

Step   100/2000    5.0% | t 5.000 | ETA 6m 26s | step 0.19s | KE 153.5428 | drift -0.71% | fluid 93.8185 | solid 59.7244
  Impulse FP iterations last/mean/max 15/14.77/16
Step   200/2000   10.0% | t 10.000 | ETA 6m 7s | step 0.20s | KE 153.0536 | drift -1.03% | fluid 90.7320 | solid 62.3216
  Impulse FP iterations last/mean/max 15/14.81/16
Step   300/2000   15.0% | t 15.000 | ETA 5m 43s | step 0.19s | KE 153.4133 | drift -0.80% | fluid 89.9855 | solid 63.4278
  Impulse FP iterations last/mean/max 15/14.81/16
Step   400/2000   20.0% | t 20.000 | ETA 5m 21s | step 0.20s | KE 153.0872 | drift -1.01% | fluid 90.4823 | solid 62.6049
  Impulse FP iterations last/mean/max 14/14.80/17
Step   500/2000   25.0% | t 25.000 | ETA 5m 0s | step 0.22s | KE 153.1674 | drift -0.96% | fluid 91.6412 | solid 61.5262
  Impulse FP iterations last/mean/max 16/14.79/17
Step   600/2000   30.0% | t 30.000 | ETA 4m 40s | step 0.20s | KE 153.4525 | drift -0.77% | fluid 93.8104 | solid 59.6421
  Impulse FP iterations last/mean/max 15/14.81/17
Step   700/2000   35.0% | t 35.000 | ETA 4m 19s | step 0.20s | KE 153.3419 | drift -0.84% | fluid 92.6937 | solid 60.6482
  Impulse FP iterations last/mean/max 15/14.81/17
Step   800/2000   40.0% | t 40.000 | ETA 3m 59s | step 0.18s | KE 153.6764 | drift -0.63% | fluid 93.3987 | solid 60.2777
  Impulse FP iterations last/mean/max 14/14.82/17
Step   900/2000   45.0% | t 45.000 | ETA 3m 39s | step 0.20s | KE 153.6841 | drift -0.62% | fluid 92.3106 | solid 61.3734
  Impulse FP iterations last/mean/max 15/14.81/17
Step  1000/2000   50.0% | t 50.000 | ETA 3m 18s | step 0.19s | KE 153.1382 | drift -0.98% | fluid 92.0929 | solid 61.0453
  Impulse FP iterations last/mean/max 15/14.80/17
Step  1100/2000   55.0% | t 55.000 | ETA 2m 58s | step 0.19s | KE 153.1417 | drift -0.97% | fluid 91.7396 | solid 61.4021
  Impulse FP iterations last/mean/max 15/14.80/17
Step  1200/2000   60.0% | t 60.000 | ETA 2m 38s | step 0.22s | KE 153.3811 | drift -0.82% | fluid 93.5467 | solid 59.8344
  Impulse FP iterations last/mean/max 16/14.80/17
Step  1300/2000   65.0% | t 65.000 | ETA 2m 18s | step 0.18s | KE 153.6447 | drift -0.65% | fluid 90.8269 | solid 62.8178
  Impulse FP iterations last/mean/max 14/14.80/17
Step  1400/2000   70.0% | t 70.000 | ETA 1m 58s | step 0.15s | KE 153.6849 | drift -0.62% | fluid 90.5940 | solid 63.0910
  Impulse FP iterations last/mean/max 14/14.79/17
Step  1500/2000   75.0% | t 75.000 | ETA 1m 37s | step 0.15s | KE 153.9344 | drift -0.46% | fluid 93.2836 | solid 60.6508
  Impulse FP iterations last/mean/max 14/14.77/17
Step  1600/2000   80.0% | t 80.000 | ETA 1m 16s | step 0.13s | KE 152.9470 | drift -1.10% | fluid 92.3020 | solid 60.6450
  Impulse FP iterations last/mean/max 15/14.77/17
Step  1700/2000   85.0% | t 85.000 | ETA 56s | step 0.13s | KE 153.1190 | drift -0.99% | fluid 94.6597 | solid 58.4593
  Impulse FP iterations last/mean/max 16/14.77/17
Step  1800/2000   90.0% | t 90.000 | ETA 36s | step 0.12s | KE 153.6585 | drift -0.64% | fluid 91.2766 | solid 62.3819
  Impulse FP iterations last/mean/max 14/14.78/17
Step  1900/2000   95.0% | t 95.000 | ETA 18s | step 0.14s | KE 153.6267 | drift -0.66% | fluid 89.9995 | solid 63.6272
  Impulse FP iterations last/mean/max 15/14.78/17
Solver finished successfully - good job!
Results saved successfully.

================== Run summary ==================
  Bodies:            2
  Triangles / nodes: 256 / 516
  Timesteps:         2000  (dt = 0.05)
  Simulated time:    0 -> 100
  First-step setup:  0.397 s
  Mean time/step:    0.1783 s  (excl. first step)
  Total wall time:   5m 56s
  Impulse FP iters last/mean/max: 16 / 14.780 / 17
  Approx impulse solves/step:     14.781
  Impulse start cache hits/direct: 1999 / 1
  Impulse global drift P/H:       3.241680e-8 / 2.895732e-2
  Impulse per-body max drift P/H: 4.438556e-8 / 1.579358e-2
  CPU cores:         256 available, 8 Rayon worker thread(s)
  Started:           2026-06-22 19:40:06
  Finished:          2026-06-22 19:46:03
  Output file:       /work/e643/e643/shared/multi_ellip/studies/two_body_paper_sweeps/runs/ellipsoid_1_0p8_0p6/ellipsoid_1_0p8_0p6_rho0p3_E0p55_sep8_run01_impulse_noproj/multiple_body_complete.dat
================================================
