
================ Simulation setup ================
  Run label:         /work/e643/e643/shared/multi_ellip/studies/two_body_paper_sweeps/runs/spheroid_1_0p7_0p7/spheroid_1_0p7_0p7_rho0p3_E1p5_sep3_run01_impulse_noproj/
  Started:           2026-06-22 19:45:28
  Input file:        /work/e643/e643/shared/multi_ellip/studies/two_body_paper_sweeps/runs/spheroid_1_0p7_0p7/spheroid_1_0p7_0p7_rho0p3_E1p5_sep3_run01_impulse_noproj/input.txt
  Output file:       /work/e643/e643/shared/multi_ellip/studies/two_body_paper_sweeps/runs/spheroid_1_0p7_0p7/spheroid_1_0p7_0p7_rho0p3_E1p5_sep3_run01_impulse_noproj/multiple_body_complete.dat
  Bodies:            2
  Fluid density:     1
  Mesh:              ndiv 2 -> 256 triangles / 516 nodes
  Simulated time:    0 -> 100  (dt = 0.05, ~2000 steps)
  Output cadence:    every 1 step(s)
  Output rows:       ~2001
  Progress cadence:  every 100 step(s)
  CPU cores:         256 available, 8 Rayon worker thread(s)
  Strong coupling:   disabled
  Impulse scheme:    enabled
  Hamiltonian step:  disabled
  Hamiltonian midpt: disabled
  Variational step:  disabled
  Energy projection: disabled
  Projection particular metric: Euclidean
  Fluid KE gradient: disabled  (eps = 0.001, scale = 1, linear = 1, angular = 1)
  Fluid KE discrete gradient: disabled
  Impulse pair metric correction: disabled  (mode = pair discrete-gradient, cutoff = all pairs, inner/outer = 0/0, eps = 0.001, linear scale = 1, angular scale = 0)
  Impulse metric correction: disabled  (internal load constraint = disabled)
  Impulse variational defect probe: disabled
  Impulse quadratic pressure: disabled  (scale = 1)
  Added-mass stab:   disabled
  Exact BEM geometry: disabled
  Exact singular BEM: disabled
  Legacy singular SLP diagnostic: disabled
  Phi-dot blend:     0 (off)

  Solver guidance:
    - Strong coupling: use for stiff close-coupled runs; slower but more implicit.
    - Impulse scheme: use when impulse/momentum conservation or KE drift is the focus. Recommended.
    - Added-mass stab: use for higher mesh counts (ndiv > 3) to preserve stability - deprecated.
================================================
Solver starting - good luck!

Initial state:
  Body  1
    density:          0.300000
    shape axes ratio: (1.000000, 0.700000, 0.700000)
    initial KE ratio: 1.500000
    position:         (-1.500000, 0.000000, 0.000000)
    velocity:         (2.269325, 0.526505, -1.702233)
    angular velocity: (6.264993, 0.477187, -0.024004)
    orientation:      (w=0.447214, i=0.894427, j=0.000000, k=0.000000)
  Body  2
    density:          0.300000
    shape axes ratio: (1.000000, 0.700000, 0.700000)
    initial KE ratio: 1.500000
    position:         (1.500000, 0.000000, 0.000000)
    velocity:         (2.578740, 0.598292, -1.934327)
    angular velocity: (-4.133605, 2.531096, 3.998160)
    orientation:      (w=0.707107, i=0.000000, j=0.707107, k=0.000000)

Preparing first step: implicit scheme, no bootstrap passes required.
First step may take longer than later steps.

First step completed in 0.273 s.

Step   100/2000    5.0% | t 5.000 | ETA 3m 28s | step 0.11s | KE 58.3358 | drift +12.18% | fluid 21.7243 | solid 36.6114
  Impulse FP iterations last/mean/max 12/12.47/14
Step   200/2000   10.0% | t 10.000 | ETA 3m 15s | step 0.11s | KE 57.6793 | drift +10.92% | fluid 21.7079 | solid 35.9714
  Impulse FP iterations last/mean/max 12/12.29/14
Step   300/2000   15.0% | t 15.000 | ETA 3m 11s | step 0.13s | KE 57.7927 | drift +11.14% | fluid 21.6830 | solid 36.1097
  Impulse FP iterations last/mean/max 13/12.21/14
Step   400/2000   20.0% | t 20.000 | ETA 3m 10s | step 0.14s | KE 57.7277 | drift +11.01% | fluid 21.7317 | solid 35.9960
  Impulse FP iterations last/mean/max 12/12.15/14
Step   500/2000   25.0% | t 25.000 | ETA 3m 6s | step 0.16s | KE 57.8384 | drift +11.22% | fluid 21.7104 | solid 36.1281
  Impulse FP iterations last/mean/max 12/12.12/14
Step   600/2000   30.0% | t 30.000 | ETA 3m 2s | step 0.16s | KE 57.7739 | drift +11.10% | fluid 21.6807 | solid 36.0932
  Impulse FP iterations last/mean/max 12/12.10/14
Step   700/2000   35.0% | t 35.000 | ETA 2m 56s | step 0.17s | KE 57.7653 | drift +11.08% | fluid 21.7522 | solid 36.0131
  Impulse FP iterations last/mean/max 12/12.07/14
Step   800/2000   40.0% | t 40.000 | ETA 2m 48s | step 0.16s | KE 57.7981 | drift +11.15% | fluid 21.6902 | solid 36.1079
  Impulse FP iterations last/mean/max 11/12.05/14
Step   900/2000   45.0% | t 45.000 | ETA 2m 37s | step 0.17s | KE 57.7653 | drift +11.08% | fluid 21.6773 | solid 36.0881
  Impulse FP iterations last/mean/max 12/12.03/14
Step  1000/2000   50.0% | t 50.000 | ETA 2m 26s | step 0.18s | KE 57.8014 | drift +11.15% | fluid 21.7704 | solid 36.0310
  Impulse FP iterations last/mean/max 12/12.03/14
Step  1100/2000   55.0% | t 55.000 | ETA 2m 13s | step 0.15s | KE 57.7831 | drift +11.12% | fluid 21.6752 | solid 36.1080
  Impulse FP iterations last/mean/max 12/12.03/14
Step  1200/2000   60.0% | t 60.000 | ETA 2m 0s | step 0.17s | KE 57.7401 | drift +11.03% | fluid 21.6755 | solid 36.0647
  Impulse FP iterations last/mean/max 12/12.03/14
Step  1300/2000   65.0% | t 65.000 | ETA 1m 46s | step 0.18s | KE 57.7966 | drift +11.14% | fluid 21.7708 | solid 36.0258
  Impulse FP iterations last/mean/max 12/12.02/14
Step  1400/2000   70.0% | t 70.000 | ETA 1m 32s | step 0.17s | KE 57.8133 | drift +11.18% | fluid 21.6751 | solid 36.1382
  Impulse FP iterations last/mean/max 12/12.01/14
Step  1500/2000   75.0% | t 75.000 | ETA 1m 17s | step 0.17s | KE 57.7538 | drift +11.06% | fluid 21.6891 | solid 36.0647
  Impulse FP iterations last/mean/max 12/12.01/14
Step  1600/2000   80.0% | t 80.000 | ETA 1m 2s | step 0.18s | KE 57.7643 | drift +11.08% | fluid 21.7549 | solid 36.0095
  Impulse FP iterations last/mean/max 12/12.01/14
Step  1700/2000   85.0% | t 85.000 | ETA 47s | step 0.17s | KE 57.8098 | drift +11.17% | fluid 21.6742 | solid 36.1356
  Impulse FP iterations last/mean/max 12/12.00/14
Step  1800/2000   90.0% | t 90.000 | ETA 31s | step 0.18s | KE 57.7908 | drift +11.13% | fluid 21.7059 | solid 36.0848
  Impulse FP iterations last/mean/max 12/12.00/14
Step  1900/2000   95.0% | t 95.000 | ETA 15s | step 0.17s | KE 57.7497 | drift +11.05% | fluid 21.7399 | solid 36.0099
  Impulse FP iterations last/mean/max 12/12.00/14
Solver finished successfully - good job!
Results saved successfully.

================== Run summary ==================
  Bodies:            2
  Triangles / nodes: 256 / 516
  Timesteps:         2000  (dt = 0.05)
  Simulated time:    0 -> 100
  First-step setup:  0.273 s
  Mean time/step:    0.1590 s  (excl. first step)
  Total wall time:   5m 18s
  Impulse FP iters last/mean/max: 12 / 12.005 / 14
  Approx impulse solves/step:     12.006
  Impulse start cache hits/direct: 1999 / 1
  Impulse global drift P/H:       2.126661e-8 / 1.213638e-1
  Impulse per-body max drift P/H: 3.353665e-8 / 2.192501e-2
  CPU cores:         256 available, 8 Rayon worker thread(s)
  Started:           2026-06-22 19:45:28
  Finished:          2026-06-22 19:50:47
  Output file:       /work/e643/e643/shared/multi_ellip/studies/two_body_paper_sweeps/runs/spheroid_1_0p7_0p7/spheroid_1_0p7_0p7_rho0p3_E1p5_sep3_run01_impulse_noproj/multiple_body_complete.dat
================================================
