
================ Simulation setup ================
  Run label:         /work/e643/e643/shared/multi_ellip/studies/two_body_paper_sweeps/runs/spheroid_1_0p7_0p7/spheroid_1_0p7_0p7_rho1_E11_sep11_run04_impulse_noproj/
  Started:           2026-06-24 01:39:24
  Input file:        /work/e643/e643/shared/multi_ellip/studies/two_body_paper_sweeps/runs/spheroid_1_0p7_0p7/spheroid_1_0p7_0p7_rho1_E11_sep11_run04_impulse_noproj/input.txt
  Output file:       /work/e643/e643/shared/multi_ellip/studies/two_body_paper_sweeps/runs/spheroid_1_0p7_0p7/spheroid_1_0p7_0p7_rho1_E11_sep11_run04_impulse_noproj/multiple_body_complete.dat
  Bodies:            2
  Fluid density:     1
  Mesh:              ndiv 2 -> 256 triangles / 516 nodes
  Simulated time:    0 -> 100  (dt = 0.05, ~2000 steps)
  Output cadence:    every 1 step(s)
  Output rows:       ~2001
  Progress cadence:  every 100 step(s)
  CPU cores:         256 available, 8 Rayon worker thread(s)
  Strong coupling:   disabled
  Impulse scheme:    enabled
  Hamiltonian step:  disabled
  Hamiltonian midpt: disabled
  Variational step:  disabled
  Energy projection: disabled
  Projection particular metric: Euclidean
  Fluid KE gradient: disabled  (eps = 0.001, scale = 1, linear = 1, angular = 1)
  Fluid KE discrete gradient: disabled
  Impulse pair metric correction: disabled  (mode = pair discrete-gradient, cutoff = all pairs, inner/outer = 0/0, eps = 0.001, linear scale = 1, angular scale = 0)
  Impulse metric correction: disabled  (internal load constraint = disabled)
  Impulse variational defect probe: disabled
  Impulse quadratic pressure: disabled  (scale = 1)
  Added-mass stab:   disabled
  Exact BEM geometry: disabled
  Exact singular BEM: disabled
  Legacy singular SLP diagnostic: disabled
  Phi-dot blend:     0 (off)

  Solver guidance:
    - Strong coupling: use for stiff close-coupled runs; slower but more implicit.
    - Impulse scheme: use when impulse/momentum conservation or KE drift is the focus. Recommended.
    - Added-mass stab: use for higher mesh counts (ndiv > 3) to preserve stability - deprecated.
================================================
Solver starting - good luck!

Initial state:
  Body  1
    density:          1.000000
    shape axes ratio: (1.000000, 0.700000, 0.700000)
    initial KE ratio: 11.000000
    position:         (-5.500000, 0.000000, 0.000000)
    velocity:         (-0.278283, 1.262920, 0.056343)
    angular velocity: (-1.740083, -4.220221, 4.317437)
    orientation:      (w=-0.827674, i=-0.343823, j=0.263547, k=-0.356770)
  Body  2
    density:          1.000000
    shape axes ratio: (1.000000, 0.700000, 0.700000)
    initial KE ratio: 11.000000
    position:         (5.500000, 0.000000, 0.000000)
    velocity:         (-0.260928, 1.184159, 0.052829)
    angular velocity: (4.074246, -0.963601, -4.685126)
    orientation:      (w=-0.238883, i=0.912236, j=0.194202, k=-0.270269)

Preparing first step: implicit scheme, no bootstrap passes required.
First step may take longer than later steps.

First step completed in 0.259 s.

Step   100/2000    5.0% | t 5.000 | ETA 4m 16s | step 0.12s | KE 87.6552 | drift +0.00% | fluid 9.0127 | solid 78.6425
  Impulse FP iterations last/mean/max 9/9.66/10
Step   200/2000   10.0% | t 10.000 | ETA 4m 4s | step 0.12s | KE 87.6659 | drift +0.02% | fluid 8.9875 | solid 78.6784
  Impulse FP iterations last/mean/max 9/9.67/10
Step   300/2000   15.0% | t 15.000 | ETA 3m 52s | step 0.12s | KE 87.6783 | drift +0.03% | fluid 8.9139 | solid 78.7644
  Impulse FP iterations last/mean/max 9/9.67/10
Step   400/2000   20.0% | t 20.000 | ETA 3m 38s | step 0.13s | KE 87.6835 | drift +0.04% | fluid 8.8033 | solid 78.8801
  Impulse FP iterations last/mean/max 9/9.67/10
Step   500/2000   25.0% | t 25.000 | ETA 3m 24s | step 0.12s | KE 87.6696 | drift +0.02% | fluid 8.6753 | solid 78.9943
  Impulse FP iterations last/mean/max 9/9.67/10
Step   600/2000   30.0% | t 30.000 | ETA 3m 8s | step 0.13s | KE 87.6225 | drift -0.03% | fluid 8.5536 | solid 79.0688
  Impulse FP iterations last/mean/max 10/9.66/10
Step   700/2000   35.0% | t 35.000 | ETA 2m 53s | step 0.14s | KE 87.5267 | drift -0.14% | fluid 8.4641 | solid 79.0626
  Impulse FP iterations last/mean/max 10/9.66/10
Step   800/2000   40.0% | t 40.000 | ETA 2m 41s | step 0.14s | KE 87.3691 | drift -0.32% | fluid 8.4267 | solid 78.9424
  Impulse FP iterations last/mean/max 10/9.66/10
Step   900/2000   45.0% | t 45.000 | ETA 2m 28s | step 0.14s | KE 87.1442 | drift -0.58% | fluid 8.4462 | solid 78.6981
  Impulse FP iterations last/mean/max 10/9.67/10
Step  1000/2000   50.0% | t 50.000 | ETA 2m 14s | step 0.14s | KE 86.8599 | drift -0.90% | fluid 8.5100 | solid 78.3498
  Impulse FP iterations last/mean/max 10/9.67/10
Step  1100/2000   55.0% | t 55.000 | ETA 2m 1s | step 0.13s | KE 86.5387 | drift -1.27% | fluid 8.5976 | solid 77.9411
  Impulse FP iterations last/mean/max 9/9.67/10
Step  1200/2000   60.0% | t 60.000 | ETA 1m 48s | step 0.14s | KE 86.2140 | drift -1.64% | fluid 8.6877 | solid 77.5262
  Impulse FP iterations last/mean/max 10/9.66/10
Step  1300/2000   65.0% | t 65.000 | ETA 1m 34s | step 0.15s | KE 85.9192 | drift -1.98% | fluid 8.7571 | solid 77.1621
  Impulse FP iterations last/mean/max 10/9.66/10
Step  1400/2000   70.0% | t 70.000 | ETA 1m 21s | step 0.15s | KE 85.6785 | drift -2.25% | fluid 8.7804 | solid 76.8981
  Impulse FP iterations last/mean/max 10/9.66/10
Step  1500/2000   75.0% | t 75.000 | ETA 1m 7s | step 0.14s | KE 85.5010 | drift -2.45% | fluid 8.7465 | solid 76.7545
  Impulse FP iterations last/mean/max 10/9.65/10
Step  1600/2000   80.0% | t 80.000 | ETA 54s | step 0.14s | KE 85.3821 | drift -2.59% | fluid 8.6795 | solid 76.7026
  Impulse FP iterations last/mean/max 10/9.64/10
Step  1700/2000   85.0% | t 85.000 | ETA 40s | step 0.13s | KE 85.3081 | drift -2.67% | fluid 8.6324 | solid 76.6757
  Impulse FP iterations last/mean/max 9/9.63/10
Step  1800/2000   90.0% | t 90.000 | ETA 27s | step 0.13s | KE 85.2645 | drift -2.72% | fluid 8.6401 | solid 76.6245
  Impulse FP iterations last/mean/max 9/9.61/10
Step  1900/2000   95.0% | t 95.000 | ETA 13s | step 0.12s | KE 85.2424 | drift -2.75% | fluid 8.6697 | solid 76.5727
  Impulse FP iterations last/mean/max 9/9.59/10
Solver finished successfully - good job!
Results saved successfully.

================== Run summary ==================
  Bodies:            2
  Triangles / nodes: 256 / 516
  Timesteps:         2000  (dt = 0.05)
  Simulated time:    0 -> 100
  First-step setup:  0.259 s
  Mean time/step:    0.1338 s  (excl. first step)
  Total wall time:   4m 27s
  Impulse FP iters last/mean/max: 9 / 9.566 / 10
  Approx impulse solves/step:     9.567
  Impulse start cache hits/direct: 1999 / 1
  Impulse global drift P/H:       3.452931e-8 / 1.635832e-2
  Impulse per-body max drift P/H: 5.777841e-8 / 6.476730e-3
  CPU cores:         256 available, 8 Rayon worker thread(s)
  Started:           2026-06-24 01:39:24
  Finished:          2026-06-24 01:43:52
  Output file:       /work/e643/e643/shared/multi_ellip/studies/two_body_paper_sweeps/runs/spheroid_1_0p7_0p7/spheroid_1_0p7_0p7_rho1_E11_sep11_run04_impulse_noproj/multiple_body_complete.dat
================================================
