
================ Simulation setup ================
  Run label:         /work/e643/e643/shared/multi_ellip/studies/two_body_paper_sweeps/runs/ellipsoid_1_0p8_0p6/ellipsoid_1_0p8_0p6_rho0p3_E1p5_sep11_run02_impulse_noproj/
  Started:           2026-06-22 19:47:29
  Input file:        /work/e643/e643/shared/multi_ellip/studies/two_body_paper_sweeps/runs/ellipsoid_1_0p8_0p6/ellipsoid_1_0p8_0p6_rho0p3_E1p5_sep11_run02_impulse_noproj/input.txt
  Output file:       /work/e643/e643/shared/multi_ellip/studies/two_body_paper_sweeps/runs/ellipsoid_1_0p8_0p6/ellipsoid_1_0p8_0p6_rho0p3_E1p5_sep11_run02_impulse_noproj/multiple_body_complete.dat
  Bodies:            2
  Fluid density:     1
  Mesh:              ndiv 2 -> 256 triangles / 516 nodes
  Simulated time:    0 -> 100  (dt = 0.05, ~2000 steps)
  Output cadence:    every 1 step(s)
  Output rows:       ~2001
  Progress cadence:  every 100 step(s)
  CPU cores:         256 available, 8 Rayon worker thread(s)
  Strong coupling:   disabled
  Impulse scheme:    enabled
  Hamiltonian step:  disabled
  Hamiltonian midpt: disabled
  Variational step:  disabled
  Energy projection: disabled
  Projection particular metric: Euclidean
  Fluid KE gradient: disabled  (eps = 0.001, scale = 1, linear = 1, angular = 1)
  Fluid KE discrete gradient: disabled
  Impulse pair metric correction: disabled  (mode = pair discrete-gradient, cutoff = all pairs, inner/outer = 0/0, eps = 0.001, linear scale = 1, angular scale = 0)
  Impulse metric correction: disabled  (internal load constraint = disabled)
  Impulse variational defect probe: disabled
  Impulse quadratic pressure: disabled  (scale = 1)
  Added-mass stab:   disabled
  Exact BEM geometry: disabled
  Exact singular BEM: disabled
  Legacy singular SLP diagnostic: disabled
  Phi-dot blend:     0 (off)

  Solver guidance:
    - Strong coupling: use for stiff close-coupled runs; slower but more implicit.
    - Impulse scheme: use when impulse/momentum conservation or KE drift is the focus. Recommended.
    - Added-mass stab: use for higher mesh counts (ndiv > 3) to preserve stability - deprecated.
================================================
Solver starting - good luck!

Initial state:
  Body  1
    density:          0.300000
    shape axes ratio: (1.000000, 0.800000, 0.600000)
    initial KE ratio: 1.500000
    position:         (-5.500000, 0.000000, 0.000000)
    velocity:         (3.060469, -1.743878, 0.050692)
    angular velocity: (3.039639, -2.515175, -4.890083)
    orientation:      (w=0.577350, i=0.577350, j=0.577350, k=0.000000)
  Body  2
    density:          0.300000
    shape axes ratio: (1.000000, 0.800000, 0.600000)
    initial KE ratio: 1.500000
    position:         (5.500000, 0.000000, 0.000000)
    velocity:         (2.866791, -1.633519, 0.047484)
    angular velocity: (3.660156, 4.669062, 2.069187)
    orientation:      (w=0.577350, i=-0.577350, j=0.000000, k=0.577350)

Preparing first step: implicit scheme, no bootstrap passes required.
First step may take longer than later steps.

First step completed in 0.259 s.

Step   100/2000    5.0% | t 5.000 | ETA 5m 58s | step 0.20s | KE 84.0771 | drift +0.54% | fluid 45.1605 | solid 38.9166
  Impulse FP iterations last/mean/max 14/14.30/15
Step   200/2000   10.0% | t 10.000 | ETA 5m 43s | step 0.21s | KE 84.0846 | drift +0.55% | fluid 45.6057 | solid 38.4789
  Impulse FP iterations last/mean/max 15/14.26/15
Step   300/2000   15.0% | t 15.000 | ETA 5m 25s | step 0.19s | KE 84.0233 | drift +0.48% | fluid 45.7255 | solid 38.2977
  Impulse FP iterations last/mean/max 14/14.25/16
Step   400/2000   20.0% | t 20.000 | ETA 5m 7s | step 0.19s | KE 83.8217 | drift +0.24% | fluid 44.9418 | solid 38.8799
  Impulse FP iterations last/mean/max 14/14.23/16
Step   500/2000   25.0% | t 25.000 | ETA 4m 48s | step 0.18s | KE 83.9318 | drift +0.37% | fluid 45.2680 | solid 38.6638
  Impulse FP iterations last/mean/max 14/14.23/16
Step   600/2000   30.0% | t 30.000 | ETA 4m 30s | step 0.20s | KE 83.9558 | drift +0.40% | fluid 46.0301 | solid 37.9257
  Impulse FP iterations last/mean/max 15/14.22/16
Step   700/2000   35.0% | t 35.000 | ETA 4m 10s | step 0.18s | KE 83.9841 | drift +0.43% | fluid 45.7613 | solid 38.2228
  Impulse FP iterations last/mean/max 14/14.23/16
Step   800/2000   40.0% | t 40.000 | ETA 3m 51s | step 0.21s | KE 84.0132 | drift +0.47% | fluid 45.4678 | solid 38.5454
  Impulse FP iterations last/mean/max 14/14.22/16
Step   900/2000   45.0% | t 45.000 | ETA 3m 32s | step 0.20s | KE 83.7749 | drift +0.18% | fluid 44.1888 | solid 39.5862
  Impulse FP iterations last/mean/max 14/14.22/16
Step  1000/2000   50.0% | t 50.000 | ETA 3m 13s | step 0.19s | KE 84.0275 | drift +0.48% | fluid 45.6030 | solid 38.4244
  Impulse FP iterations last/mean/max 14/14.22/16
Step  1100/2000   55.0% | t 55.000 | ETA 2m 54s | step 0.19s | KE 84.0107 | drift +0.46% | fluid 45.8697 | solid 38.1410
  Impulse FP iterations last/mean/max 14/14.22/16
Step  1200/2000   60.0% | t 60.000 | ETA 2m 34s | step 0.19s | KE 83.8883 | drift +0.32% | fluid 45.3145 | solid 38.5738
  Impulse FP iterations last/mean/max 14/14.22/16
Step  1300/2000   65.0% | t 65.000 | ETA 2m 15s | step 0.21s | KE 83.8888 | drift +0.32% | fluid 44.1570 | solid 39.7319
  Impulse FP iterations last/mean/max 14/14.22/16
Step  1400/2000   70.0% | t 70.000 | ETA 1m 56s | step 0.18s | KE 83.8990 | drift +0.33% | fluid 45.7301 | solid 38.1689
  Impulse FP iterations last/mean/max 14/14.22/16
Step  1500/2000   75.0% | t 75.000 | ETA 1m 37s | step 0.19s | KE 83.9048 | drift +0.34% | fluid 45.6018 | solid 38.3030
  Impulse FP iterations last/mean/max 14/14.23/16
Step  1600/2000   80.0% | t 80.000 | ETA 1m 17s | step 0.21s | KE 83.9049 | drift +0.34% | fluid 44.6172 | solid 39.2877
  Impulse FP iterations last/mean/max 15/14.23/16
Step  1700/2000   85.0% | t 85.000 | ETA 58s | step 0.21s | KE 83.8996 | drift +0.33% | fluid 45.6007 | solid 38.2988
  Impulse FP iterations last/mean/max 15/14.23/16
Step  1800/2000   90.0% | t 90.000 | ETA 38s | step 0.20s | KE 83.9063 | drift +0.34% | fluid 45.8648 | solid 38.0415
  Impulse FP iterations last/mean/max 14/14.23/16
Step  1900/2000   95.0% | t 95.000 | ETA 19s | step 0.19s | KE 83.6525 | drift +0.03% | fluid 43.4792 | solid 40.1733
  Impulse FP iterations last/mean/max 14/14.23/16
Solver finished successfully - good job!
Results saved successfully.

================== Run summary ==================
  Bodies:            2
  Triangles / nodes: 256 / 516
  Timesteps:         2000  (dt = 0.05)
  Simulated time:    0 -> 100
  First-step setup:  0.259 s
  Mean time/step:    0.1927 s  (excl. first step)
  Total wall time:   6m 25s
  Impulse FP iters last/mean/max: 13 / 14.227 / 16
  Approx impulse solves/step:     14.228
  Impulse start cache hits/direct: 1999 / 1
  Impulse global drift P/H:       2.494124e-8 / 5.222377e-2
  Impulse per-body max drift P/H: 3.807226e-8 / 5.775516e-3
  CPU cores:         256 available, 8 Rayon worker thread(s)
  Started:           2026-06-22 19:47:29
  Finished:          2026-06-22 19:53:54
  Output file:       /work/e643/e643/shared/multi_ellip/studies/two_body_paper_sweeps/runs/ellipsoid_1_0p8_0p6/ellipsoid_1_0p8_0p6_rho0p3_E1p5_sep11_run02_impulse_noproj/multiple_body_complete.dat
================================================
