
================ Simulation setup ================
  Run label:         /work/e643/e643/shared/multi_ellip/studies/two_body_paper_sweeps/runs/ellipsoid_1_0p8_0p6/ellipsoid_1_0p8_0p6_rho10_E11_sep5_run01_impulse_noproj/
  Started:           2026-06-22 19:26:45
  Input file:        /work/e643/e643/shared/multi_ellip/studies/two_body_paper_sweeps/runs/ellipsoid_1_0p8_0p6/ellipsoid_1_0p8_0p6_rho10_E11_sep5_run01_impulse_noproj/input.txt
  Output file:       /work/e643/e643/shared/multi_ellip/studies/two_body_paper_sweeps/runs/ellipsoid_1_0p8_0p6/ellipsoid_1_0p8_0p6_rho10_E11_sep5_run01_impulse_noproj/multiple_body_complete.dat
  Bodies:            2
  Fluid density:     1
  Mesh:              ndiv 2 -> 256 triangles / 516 nodes
  Simulated time:    0 -> 100  (dt = 0.05, ~2000 steps)
  Output cadence:    every 1 step(s)
  Output rows:       ~2001
  Progress cadence:  every 100 step(s)
  CPU cores:         256 available, 8 Rayon worker thread(s)
  Strong coupling:   disabled
  Impulse scheme:    enabled
  Hamiltonian step:  disabled
  Hamiltonian midpt: disabled
  Variational step:  disabled
  Energy projection: disabled
  Projection particular metric: Euclidean
  Fluid KE gradient: disabled  (eps = 0.001, scale = 1, linear = 1, angular = 1)
  Fluid KE discrete gradient: disabled
  Impulse pair metric correction: disabled  (mode = pair discrete-gradient, cutoff = all pairs, inner/outer = 0/0, eps = 0.001, linear scale = 1, angular scale = 0)
  Impulse metric correction: disabled  (internal load constraint = disabled)
  Impulse variational defect probe: disabled
  Impulse quadratic pressure: disabled  (scale = 1)
  Added-mass stab:   disabled
  Exact BEM geometry: disabled
  Exact singular BEM: disabled
  Legacy singular SLP diagnostic: disabled
  Phi-dot blend:     0 (off)

  Solver guidance:
    - Strong coupling: use for stiff close-coupled runs; slower but more implicit.
    - Impulse scheme: use when impulse/momentum conservation or KE drift is the focus. Recommended.
    - Added-mass stab: use for higher mesh counts (ndiv > 3) to preserve stability - deprecated.
================================================
Solver starting - good luck!

Initial state:
  Body  1
    density:          10.000000
    shape axes ratio: (1.000000, 0.800000, 0.600000)
    initial KE ratio: 11.000000
    position:         (-2.500000, 0.000000, 0.000000)
    velocity:         (-1.029074, -0.048059, 0.457121)
    angular velocity: (-5.592738, 2.602174, -1.195150)
    orientation:      (w=0.447214, i=0.894427, j=0.000000, k=0.000000)
  Body  2
    density:          10.000000
    shape axes ratio: (1.000000, 0.800000, 0.600000)
    initial KE ratio: 11.000000
    position:         (2.500000, 0.000000, 0.000000)
    velocity:         (-1.006839, -0.047021, 0.447244)
    angular velocity: (6.090665, 0.114132, 1.539219)
    orientation:      (w=0.707107, i=0.000000, j=0.707107, k=0.000000)

Preparing first step: implicit scheme, no bootstrap passes required.
First step may take longer than later steps.

First step completed in 0.196 s.

Step   100/2000    5.0% | t 5.000 | ETA 2m 57s | step 0.09s | KE 783.5768 | drift -0.11% | fluid 8.0011 | solid 775.5758
  Impulse FP iterations last/mean/max 7/7.19/8
Step   200/2000   10.0% | t 10.000 | ETA 2m 53s | step 0.09s | KE 782.8005 | drift -0.21% | fluid 8.1714 | solid 774.6290
  Impulse FP iterations last/mean/max 7/7.25/8
Step   300/2000   15.0% | t 15.000 | ETA 2m 44s | step 0.10s | KE 782.0391 | drift -0.30% | fluid 7.3647 | solid 774.6744
  Impulse FP iterations last/mean/max 7/7.25/8
Step   400/2000   20.0% | t 20.000 | ETA 2m 35s | step 0.11s | KE 781.2142 | drift -0.41% | fluid 7.6272 | solid 773.5870
  Impulse FP iterations last/mean/max 8/7.25/8
Step   500/2000   25.0% | t 25.000 | ETA 2m 25s | step 0.08s | KE 780.4403 | drift -0.51% | fluid 8.0110 | solid 772.4293
  Impulse FP iterations last/mean/max 7/7.25/8
Step   600/2000   30.0% | t 30.000 | ETA 2m 14s | step 0.08s | KE 779.6998 | drift -0.60% | fluid 6.8564 | solid 772.8433
  Impulse FP iterations last/mean/max 7/7.25/8
Step   700/2000   35.0% | t 35.000 | ETA 2m 4s | step 0.09s | KE 778.9569 | drift -0.70% | fluid 6.1844 | solid 772.7726
  Impulse FP iterations last/mean/max 7/7.25/8
Step   800/2000   40.0% | t 40.000 | ETA 1m 54s | step 0.11s | KE 778.1841 | drift -0.79% | fluid 7.0911 | solid 771.0929
  Impulse FP iterations last/mean/max 8/7.26/8
Step   900/2000   45.0% | t 45.000 | ETA 1m 45s | step 0.10s | KE 777.4833 | drift -0.88% | fluid 6.7453 | solid 770.7379
  Impulse FP iterations last/mean/max 7/7.26/8
Step  1000/2000   50.0% | t 50.000 | ETA 1m 36s | step 0.10s | KE 776.7953 | drift -0.97% | fluid 6.8249 | solid 769.9703
  Impulse FP iterations last/mean/max 7/7.26/8
Step  1100/2000   55.0% | t 55.000 | ETA 1m 26s | step 0.10s | KE 776.0666 | drift -1.06% | fluid 7.8269 | solid 768.2397
  Impulse FP iterations last/mean/max 8/7.26/8
Step  1200/2000   60.0% | t 60.000 | ETA 1m 17s | step 0.10s | KE 775.4275 | drift -1.15% | fluid 8.1875 | solid 767.2400
  Impulse FP iterations last/mean/max 7/7.26/8
Step  1300/2000   65.0% | t 65.000 | ETA 1m 7s | step 0.10s | KE 774.7880 | drift -1.23% | fluid 7.5756 | solid 767.2124
  Impulse FP iterations last/mean/max 7/7.26/8
Step  1400/2000   70.0% | t 70.000 | ETA 58s | step 0.10s | KE 774.1549 | drift -1.31% | fluid 6.9991 | solid 767.1558
  Impulse FP iterations last/mean/max 7/7.26/8
Step  1500/2000   75.0% | t 75.000 | ETA 48s | step 0.11s | KE 773.5263 | drift -1.39% | fluid 7.3135 | solid 766.2128
  Impulse FP iterations last/mean/max 8/7.26/8
Step  1600/2000   80.0% | t 80.000 | ETA 38s | step 0.10s | KE 772.9716 | drift -1.46% | fluid 6.4418 | solid 766.5298
  Impulse FP iterations last/mean/max 7/7.26/8
Step  1700/2000   85.0% | t 85.000 | ETA 29s | step 0.10s | KE 772.4332 | drift -1.53% | fluid 6.2268 | solid 766.2064
  Impulse FP iterations last/mean/max 7/7.25/8
Step  1800/2000   90.0% | t 90.000 | ETA 19s | step 0.10s | KE 771.8457 | drift -1.60% | fluid 7.7155 | solid 764.1303
  Impulse FP iterations last/mean/max 7/7.26/8
Step  1900/2000   95.0% | t 95.000 | ETA 9s | step 0.10s | KE 771.3895 | drift -1.66% | fluid 8.1564 | solid 763.2331
  Impulse FP iterations last/mean/max 7/7.26/8
Solver finished successfully - good job!
Results saved successfully.

================== Run summary ==================
  Bodies:            2
  Triangles / nodes: 256 / 516
  Timesteps:         2000  (dt = 0.05)
  Simulated time:    0 -> 100
  First-step setup:  0.196 s
  Mean time/step:    0.0977 s  (excl. first step)
  Total wall time:   3m 15s
  Impulse FP iters last/mean/max: 7 / 7.260 / 8
  Approx impulse solves/step:     7.260
  Impulse start cache hits/direct: 1999 / 1
  Impulse global drift P/H:       9.431074e-9 / 1.270711e-2
  Impulse per-body max drift P/H: 1.857606e-8 / 6.269475e-3
  CPU cores:         256 available, 8 Rayon worker thread(s)
  Started:           2026-06-22 19:26:45
  Finished:          2026-06-22 19:30:01
  Output file:       /work/e643/e643/shared/multi_ellip/studies/two_body_paper_sweeps/runs/ellipsoid_1_0p8_0p6/ellipsoid_1_0p8_0p6_rho10_E11_sep5_run01_impulse_noproj/multiple_body_complete.dat
================================================
