
================ Simulation setup ================
  Run label:         /work/e643/e643/shared/multi_ellip/studies/departing_sphericity_sweep/runs/spheroid_prolate/homogeneous/spheroid_prolate_homogeneous_eps0p01_rho1_E0p5_sep8_run01_impulse_noproj/
  Started:           2026-06-24 02:26:39
  Input file:        /work/e643/e643/shared/multi_ellip/studies/departing_sphericity_sweep/runs/spheroid_prolate/homogeneous/spheroid_prolate_homogeneous_eps0p01_rho1_E0p5_sep8_run01_impulse_noproj/input.txt
  Output file:       /work/e643/e643/shared/multi_ellip/studies/departing_sphericity_sweep/runs/spheroid_prolate/homogeneous/spheroid_prolate_homogeneous_eps0p01_rho1_E0p5_sep8_run01_impulse_noproj/multiple_body_complete.dat
  Bodies:            2
  Fluid density:     1
  Mesh:              ndiv 2 -> 256 triangles / 516 nodes
  Simulated time:    0 -> 100  (dt = 0.05, ~2000 steps)
  Output cadence:    every 1 step(s)
  Output rows:       ~2001
  Progress cadence:  every 100 step(s)
  CPU cores:         256 available, 8 Rayon worker thread(s)
  Strong coupling:   disabled
  Impulse scheme:    enabled
  Hamiltonian step:  disabled
  Hamiltonian midpt: disabled
  Variational step:  disabled
  Energy projection: disabled
  Projection particular metric: Euclidean
  Fluid KE gradient: disabled  (eps = 0.001, scale = 1, linear = 1, angular = 1)
  Fluid KE discrete gradient: disabled
  Impulse pair metric correction: disabled  (mode = pair discrete-gradient, cutoff = all pairs, inner/outer = 0/0, eps = 0.001, linear scale = 1, angular scale = 0)
  Impulse metric correction: disabled  (internal load constraint = disabled)
  Impulse variational defect probe: disabled
  Impulse quadratic pressure: disabled  (scale = 1)
  Added-mass stab:   disabled
  Exact BEM geometry: disabled
  Exact singular BEM: disabled
  Legacy singular SLP diagnostic: disabled
  Phi-dot blend:     0 (off)

  Solver guidance:
    - Strong coupling: use for stiff close-coupled runs; slower but more implicit.
    - Impulse scheme: use when impulse/momentum conservation or KE drift is the focus. Recommended.
    - Added-mass stab: use for higher mesh counts (ndiv > 3) to preserve stability - deprecated.
================================================
Solver starting - good luck!

Initial state:
  Body  1
    density:          1.000000
    shape axes ratio: (1.000000, 0.970590, 0.970590)
    initial KE ratio: 0.500000
    position:         (-4.000000, 0.000000, 0.000000)
    velocity:         (2.020916, -5.226426, -0.586500)
    angular velocity: (-2.648120, -2.487420, 5.126268)
    orientation:      (w=-0.581955, i=-0.664210, j=0.376479, k=0.280031)
  Body  2
    density:          1.000000
    shape axes ratio: (1.000000, 0.970590, 0.970590)
    initial KE ratio: 0.500000
    position:         (4.000000, 0.000000, 0.000000)
    velocity:         (2.017771, -5.218292, -0.585587)
    angular velocity: (-3.332450, 1.922831, -4.967486)
    orientation:      (w=-0.174896, i=0.319565, j=0.703124, k=-0.610661)

Preparing first step: implicit scheme, no bootstrap passes required.
First step may take longer than later steps.

First step completed in 0.277 s.

Step   100/2000    5.0% | t 5.000 | ETA 3m 21s | step 0.11s | KE 271.2314 | drift +0.46% | fluid 71.6814 | solid 199.5500
  Impulse FP iterations last/mean/max 8/7.58/8
Step   200/2000   10.0% | t 10.000 | ETA 3m 15s | step 0.11s | KE 275.0829 | drift +1.89% | fluid 71.2704 | solid 203.8125
  Impulse FP iterations last/mean/max 8/7.64/8
Step   300/2000   15.0% | t 15.000 | ETA 3m 4s | step 0.10s | KE 281.6148 | drift +4.31% | fluid 71.5974 | solid 210.0174
  Impulse FP iterations last/mean/max 7/7.66/8
Step   400/2000   20.0% | t 20.000 | ETA 2m 55s | step 0.12s | KE 291.0970 | drift +7.82% | fluid 71.7227 | solid 219.3744
  Impulse FP iterations last/mean/max 8/7.68/8
Step   500/2000   25.0% | t 25.000 | ETA 2m 43s | step 0.10s | KE 303.7629 | drift +12.51% | fluid 71.2823 | solid 232.4805
  Impulse FP iterations last/mean/max 8/7.69/8
Step   600/2000   30.0% | t 30.000 | ETA 2m 33s | step 0.12s | KE 319.3033 | drift +18.27% | fluid 71.1370 | solid 248.1663
  Impulse FP iterations last/mean/max 8/7.70/8
Step   700/2000   35.0% | t 35.000 | ETA 2m 22s | step 0.10s | KE 337.7756 | drift +25.11% | fluid 71.3621 | solid 266.4135
  Impulse FP iterations last/mean/max 8/7.70/8
Step   800/2000   40.0% | t 40.000 | ETA 2m 11s | step 0.11s | KE 359.1644 | drift +33.03% | fluid 71.3001 | solid 287.8642
  Impulse FP iterations last/mean/max 8/7.70/8
Step   900/2000   45.0% | t 45.000 | ETA 2m 1s | step 0.12s | KE 383.3127 | drift +41.98% | fluid 71.6649 | solid 311.6478
  Impulse FP iterations last/mean/max 8/7.70/8
Step  1000/2000   50.0% | t 50.000 | ETA 1m 50s | step 0.11s | KE 410.7790 | drift +52.15% | fluid 71.3678 | solid 339.4112
  Impulse FP iterations last/mean/max 8/7.71/8
Step  1100/2000   55.0% | t 55.000 | ETA 1m 39s | step 0.10s | KE 441.1729 | drift +63.41% | fluid 71.6633 | solid 369.5096
  Impulse FP iterations last/mean/max 7/7.72/8
Step  1200/2000   60.0% | t 60.000 | ETA 1m 28s | step 0.11s | KE 475.2122 | drift +76.02% | fluid 71.4426 | solid 403.7697
  Impulse FP iterations last/mean/max 8/7.73/8
Step  1300/2000   65.0% | t 65.000 | ETA 1m 17s | step 0.10s | KE 512.5076 | drift +89.83% | fluid 71.8238 | solid 440.6838
  Impulse FP iterations last/mean/max 8/7.75/8
Step  1400/2000   70.0% | t 70.000 | ETA 1m 6s | step 0.11s | KE 553.9787 | drift +105.19% | fluid 71.8498 | solid 482.1288
  Impulse FP iterations last/mean/max 8/7.76/8
Step  1500/2000   75.0% | t 75.000 | ETA 55s | step 0.10s | KE 599.7045 | drift +122.13% | fluid 71.5856 | solid 528.1189
  Impulse FP iterations last/mean/max 8/7.78/8
Step  1600/2000   80.0% | t 80.000 | ETA 43s | step 0.09s | KE 649.6089 | drift +140.61% | fluid 72.0768 | solid 577.5321
  Impulse FP iterations last/mean/max 8/7.79/8
Step  1700/2000   85.0% | t 85.000 | ETA 32s | step 0.10s | KE 705.2495 | drift +161.22% | fluid 71.5633 | solid 633.6862
  Impulse FP iterations last/mean/max 8/7.80/8
Step  1800/2000   90.0% | t 90.000 | ETA 21s | step 0.09s | KE 765.4388 | drift +183.51% | fluid 71.6891 | solid 693.7497
  Impulse FP iterations last/mean/max 7/7.80/8
Step  1900/2000   95.0% | t 95.000 | ETA 10s | step 0.10s | KE 830.9371 | drift +207.77% | fluid 71.8667 | solid 759.0704
  Impulse FP iterations last/mean/max 8/7.81/8
Solver finished successfully - good job!
Results saved successfully.

================== Run summary ==================
  Bodies:            2
  Triangles / nodes: 256 / 516
  Timesteps:         2000  (dt = 0.05)
  Simulated time:    0 -> 100
  First-step setup:  0.277 s
  Mean time/step:    0.1071 s  (excl. first step)
  Total wall time:   3m 34s
  Impulse FP iters last/mean/max: 8 / 7.822 / 8
  Approx impulse solves/step:     7.822
  Impulse start cache hits/direct: 1999 / 1
  Impulse global drift P/H:       3.413597e-8 / 8.571259e-2
  Impulse per-body max drift P/H: 6.815490e-8 / 3.295816e-3
  CPU cores:         256 available, 8 Rayon worker thread(s)
  Started:           2026-06-24 02:26:39
  Finished:          2026-06-24 02:30:14
  Output file:       /work/e643/e643/shared/multi_ellip/studies/departing_sphericity_sweep/runs/spheroid_prolate/homogeneous/spheroid_prolate_homogeneous_eps0p01_rho1_E0p5_sep8_run01_impulse_noproj/multiple_body_complete.dat
================================================
