
================ Simulation setup ================
  Run label:         /work/e643/e643/shared/multi_ellip/studies/departing_sphericity_sweep/runs/triaxial/homogeneous/triaxial_homogeneous_eps0p1_rho1_E0p5_sep8_run03_impulse_noproj/
  Started:           2026-06-24 02:30:20
  Input file:        /work/e643/e643/shared/multi_ellip/studies/departing_sphericity_sweep/runs/triaxial/homogeneous/triaxial_homogeneous_eps0p1_rho1_E0p5_sep8_run03_impulse_noproj/input.txt
  Output file:       /work/e643/e643/shared/multi_ellip/studies/departing_sphericity_sweep/runs/triaxial/homogeneous/triaxial_homogeneous_eps0p1_rho1_E0p5_sep8_run03_impulse_noproj/multiple_body_complete.dat
  Bodies:            2
  Fluid density:     1
  Mesh:              ndiv 2 -> 256 triangles / 516 nodes
  Simulated time:    0 -> 100  (dt = 0.05, ~2000 steps)
  Output cadence:    every 1 step(s)
  Output rows:       ~2001
  Progress cadence:  every 100 step(s)
  CPU cores:         256 available, 8 Rayon worker thread(s)
  Strong coupling:   disabled
  Impulse scheme:    enabled
  Hamiltonian step:  disabled
  Hamiltonian midpt: disabled
  Variational step:  disabled
  Energy projection: disabled
  Projection particular metric: Euclidean
  Fluid KE gradient: disabled  (eps = 0.001, scale = 1, linear = 1, angular = 1)
  Fluid KE discrete gradient: disabled
  Impulse pair metric correction: disabled  (mode = pair discrete-gradient, cutoff = all pairs, inner/outer = 0/0, eps = 0.001, linear scale = 1, angular scale = 0)
  Impulse metric correction: disabled  (internal load constraint = disabled)
  Impulse variational defect probe: disabled
  Impulse quadratic pressure: disabled  (scale = 1)
  Added-mass stab:   disabled
  Exact BEM geometry: disabled
  Exact singular BEM: disabled
  Legacy singular SLP diagnostic: disabled
  Phi-dot blend:     0 (off)

  Solver guidance:
    - Strong coupling: use for stiff close-coupled runs; slower but more implicit.
    - Impulse scheme: use when impulse/momentum conservation or KE drift is the focus. Recommended.
    - Added-mass stab: use for higher mesh counts (ndiv > 3) to preserve stability - deprecated.
================================================
Solver starting - good luck!

Initial state:
  Body  1
    density:          1.000000
    shape axes ratio: (1.000000, 0.909091, 0.826446)
    initial KE ratio: 0.500000
    position:         (-4.000000, 0.000000, 0.000000)
    velocity:         (-0.706064, 4.780075, -3.219194)
    angular velocity: (-2.102605, -2.709892, 5.264404)
    orientation:      (w=-0.944679, i=0.150017, j=0.012452, k=-0.291413)
  Body  2
    density:          1.000000
    shape axes ratio: (1.000000, 0.909091, 0.826446)
    initial KE ratio: 0.500000
    position:         (4.000000, 0.000000, 0.000000)
    velocity:         (-0.686222, 4.645747, -3.128729)
    angular velocity: (3.726947, 3.650397, -3.501840)
    orientation:      (w=0.579626, i=0.568770, j=-0.361615, k=0.458005)

Preparing first step: implicit scheme, no bootstrap passes required.
First step may take longer than later steps.

First step completed in 0.237 s.

Step   100/2000    5.0% | t 5.000 | ETA 3m 57s | step 0.12s | KE 287.4313 | drift +0.71% | fluid 81.9600 | solid 205.4713
  Impulse FP iterations last/mean/max 9/9.00/10
Step   200/2000   10.0% | t 10.000 | ETA 3m 47s | step 0.12s | KE 286.7547 | drift +0.47% | fluid 80.2819 | solid 206.4728
  Impulse FP iterations last/mean/max 9/9.00/10
Step   300/2000   15.0% | t 15.000 | ETA 3m 36s | step 0.13s | KE 287.0020 | drift +0.56% | fluid 77.6483 | solid 209.3537
  Impulse FP iterations last/mean/max 9/9.00/10
Step   400/2000   20.0% | t 20.000 | ETA 3m 24s | step 0.14s | KE 287.1039 | drift +0.59% | fluid 78.8022 | solid 208.3018
  Impulse FP iterations last/mean/max 9/9.00/10
Step   500/2000   25.0% | t 25.000 | ETA 3m 11s | step 0.11s | KE 286.9588 | drift +0.54% | fluid 79.0490 | solid 207.9098
  Impulse FP iterations last/mean/max 9/9.00/10
Step   600/2000   30.0% | t 30.000 | ETA 2m 57s | step 0.11s | KE 287.0327 | drift +0.57% | fluid 77.2876 | solid 209.7451
  Impulse FP iterations last/mean/max 9/9.00/10
Step   700/2000   35.0% | t 35.000 | ETA 2m 43s | step 0.12s | KE 287.0505 | drift +0.57% | fluid 76.8194 | solid 210.2311
  Impulse FP iterations last/mean/max 9/9.00/10
Step   800/2000   40.0% | t 40.000 | ETA 2m 29s | step 0.13s | KE 286.9964 | drift +0.55% | fluid 79.6072 | solid 207.3892
  Impulse FP iterations last/mean/max 9/9.00/10
Step   900/2000   45.0% | t 45.000 | ETA 2m 16s | step 0.11s | KE 287.1063 | drift +0.59% | fluid 78.5336 | solid 208.5727
  Impulse FP iterations last/mean/max 9/9.00/10
Step  1000/2000   50.0% | t 50.000 | ETA 2m 3s | step 0.12s | KE 287.0160 | drift +0.56% | fluid 77.7117 | solid 209.3043
  Impulse FP iterations last/mean/max 9/9.00/10
Step  1100/2000   55.0% | t 55.000 | ETA 1m 51s | step 0.13s | KE 286.9504 | drift +0.54% | fluid 80.1895 | solid 206.7608
  Impulse FP iterations last/mean/max 9/9.00/10
Step  1200/2000   60.0% | t 60.000 | ETA 1m 38s | step 0.12s | KE 286.7956 | drift +0.48% | fluid 82.0404 | solid 204.7552
  Impulse FP iterations last/mean/max 9/9.00/10
Step  1300/2000   65.0% | t 65.000 | ETA 1m 26s | step 0.11s | KE 286.9634 | drift +0.54% | fluid 80.4908 | solid 206.4727
  Impulse FP iterations last/mean/max 8/9.00/10
Step  1400/2000   70.0% | t 70.000 | ETA 1m 13s | step 0.12s | KE 287.0809 | drift +0.58% | fluid 77.9069 | solid 209.1740
  Impulse FP iterations last/mean/max 9/9.00/10
Step  1500/2000   75.0% | t 75.000 | ETA 1m 1s | step 0.12s | KE 287.1256 | drift +0.60% | fluid 79.1277 | solid 207.9979
  Impulse FP iterations last/mean/max 9/9.00/10
Step  1600/2000   80.0% | t 80.000 | ETA 49s | step 0.11s | KE 287.1273 | drift +0.60% | fluid 77.7752 | solid 209.3521
  Impulse FP iterations last/mean/max 9/9.00/10
Step  1700/2000   85.0% | t 85.000 | ETA 36s | step 0.11s | KE 287.0673 | drift +0.58% | fluid 76.5358 | solid 210.5314
  Impulse FP iterations last/mean/max 9/9.00/10
Step  1800/2000   90.0% | t 90.000 | ETA 24s | step 0.11s | KE 287.0377 | drift +0.57% | fluid 77.8996 | solid 209.1382
  Impulse FP iterations last/mean/max 9/9.00/10
Step  1900/2000   95.0% | t 95.000 | ETA 12s | step 0.10s | KE 286.8964 | drift +0.52% | fluid 80.5040 | solid 206.3924
  Impulse FP iterations last/mean/max 9/9.00/10
Solver finished successfully - good job!
Results saved successfully.

================== Run summary ==================
  Bodies:            2
  Triangles / nodes: 256 / 516
  Timesteps:         2000  (dt = 0.05)
  Simulated time:    0 -> 100
  First-step setup:  0.237 s
  Mean time/step:    0.1206 s  (excl. first step)
  Total wall time:   4m 1s
  Impulse FP iters last/mean/max: 9 / 8.996 / 10
  Approx impulse solves/step:     8.997
  Impulse start cache hits/direct: 1999 / 1
  Impulse global drift P/H:       9.475998e-9 / 1.508424e-2
  Impulse per-body max drift P/H: 9.847506e-9 / 1.126960e-3
  CPU cores:         256 available, 8 Rayon worker thread(s)
  Started:           2026-06-24 02:30:20
  Finished:          2026-06-24 02:34:22
  Output file:       /work/e643/e643/shared/multi_ellip/studies/departing_sphericity_sweep/runs/triaxial/homogeneous/triaxial_homogeneous_eps0p1_rho1_E0p5_sep8_run03_impulse_noproj/multiple_body_complete.dat
================================================
