
================ Simulation setup ================
  Run label:         /work/e643/e643/shared/multi_ellip/studies/departing_sphericity_sweep/runs/triaxial/heterogeneous_sphere/triaxial_heterogeneous_sphere_eps0p03_rho1_E0p5_sep8_run05_impulse_noproj/
  Started:           2026-06-24 02:46:57
  Input file:        /work/e643/e643/shared/multi_ellip/studies/departing_sphericity_sweep/runs/triaxial/heterogeneous_sphere/triaxial_heterogeneous_sphere_eps0p03_rho1_E0p5_sep8_run05_impulse_noproj/input.txt
  Output file:       /work/e643/e643/shared/multi_ellip/studies/departing_sphericity_sweep/runs/triaxial/heterogeneous_sphere/triaxial_heterogeneous_sphere_eps0p03_rho1_E0p5_sep8_run05_impulse_noproj/multiple_body_complete.dat
  Bodies:            2
  Fluid density:     1
  Mesh:              ndiv 2 -> 256 triangles / 516 nodes
  Simulated time:    0 -> 100  (dt = 0.05, ~2000 steps)
  Output cadence:    every 1 step(s)
  Output rows:       ~2001
  Progress cadence:  every 100 step(s)
  CPU cores:         256 available, 8 Rayon worker thread(s)
  Strong coupling:   disabled
  Impulse scheme:    enabled
  Hamiltonian step:  disabled
  Hamiltonian midpt: disabled
  Variational step:  disabled
  Energy projection: disabled
  Projection particular metric: Euclidean
  Fluid KE gradient: disabled  (eps = 0.001, scale = 1, linear = 1, angular = 1)
  Fluid KE discrete gradient: disabled
  Impulse pair metric correction: disabled  (mode = pair discrete-gradient, cutoff = all pairs, inner/outer = 0/0, eps = 0.001, linear scale = 1, angular scale = 0)
  Impulse metric correction: disabled  (internal load constraint = disabled)
  Impulse variational defect probe: disabled
  Impulse quadratic pressure: disabled  (scale = 1)
  Added-mass stab:   disabled
  Exact BEM geometry: disabled
  Exact singular BEM: disabled
  Legacy singular SLP diagnostic: disabled
  Phi-dot blend:     0 (off)

  Solver guidance:
    - Strong coupling: use for stiff close-coupled runs; slower but more implicit.
    - Impulse scheme: use when impulse/momentum conservation or KE drift is the focus. Recommended.
    - Added-mass stab: use for higher mesh counts (ndiv > 3) to preserve stability - deprecated.
================================================
Solver starting - good luck!

Initial state:
  Body  1
    density:          1.000000
    shape axes ratio: (1.000000, 0.970874, 0.942596)
    initial KE ratio: 0.500000
    position:         (-4.000000, 0.000000, 0.000000)
    velocity:         (4.651604, -1.580756, 2.733271)
    angular velocity: (1.744739, -5.878186, 1.371581)
    orientation:      (w=-0.032941, i=0.313376, j=0.818618, k=-0.480183)
  Body  2
    density:          1.000000
    shape axes ratio: (1.000000, 1.000000, 1.000000)
    initial KE ratio: 0.500000
    position:         (4.000000, 0.000000, 0.000000)
    velocity:         (4.649819, -1.580150, 2.732223)
    angular velocity: (-5.414849, 2.982939, 1.122452)
    orientation:      (w=-0.429077, i=0.015121, j=0.777319, k=-0.459826)

Preparing first step: implicit scheme, no bootstrap passes required.
First step may take longer than later steps.

First step completed in 0.243 s.

Step   100/2000    5.0% | t 5.000 | ETA 3m 27s | step 0.11s | KE 267.2078 | drift -0.65% | fluid 71.3856 | solid 195.8222
  Impulse FP iterations last/mean/max 8/7.84/8
Step   200/2000   10.0% | t 10.000 | ETA 3m 18s | step 0.11s | KE 267.7307 | drift -0.46% | fluid 71.0813 | solid 196.6494
  Impulse FP iterations last/mean/max 8/7.83/8
Step   300/2000   15.0% | t 15.000 | ETA 3m 7s | step 0.11s | KE 271.6936 | drift +1.01% | fluid 71.2428 | solid 200.4508
  Impulse FP iterations last/mean/max 8/7.85/8
Step   400/2000   20.0% | t 20.000 | ETA 2m 56s | step 0.11s | KE 278.6535 | drift +3.60% | fluid 71.3047 | solid 207.3488
  Impulse FP iterations last/mean/max 7/7.81/8
Step   500/2000   25.0% | t 25.000 | ETA 2m 45s | step 0.12s | KE 286.7168 | drift +6.60% | fluid 71.0897 | solid 215.6271
  Impulse FP iterations last/mean/max 8/7.81/8
Step   600/2000   30.0% | t 30.000 | ETA 2m 34s | step 0.12s | KE 293.7251 | drift +9.21% | fluid 71.6762 | solid 222.0489
  Impulse FP iterations last/mean/max 8/7.83/8
Step   700/2000   35.0% | t 35.000 | ETA 2m 23s | step 0.12s | KE 298.9685 | drift +11.16% | fluid 70.8661 | solid 228.1024
  Impulse FP iterations last/mean/max 8/7.81/8
Step   800/2000   40.0% | t 40.000 | ETA 2m 12s | step 0.11s | KE 302.0353 | drift +12.30% | fluid 70.8232 | solid 231.2122
  Impulse FP iterations last/mean/max 8/7.81/8
Step   900/2000   45.0% | t 45.000 | ETA 2m 1s | step 0.12s | KE 303.4998 | drift +12.84% | fluid 71.4946 | solid 232.0052
  Impulse FP iterations last/mean/max 8/7.81/8
Step  1000/2000   50.0% | t 50.000 | ETA 1m 50s | step 0.11s | KE 304.1688 | drift +13.09% | fluid 71.5440 | solid 232.6248
  Impulse FP iterations last/mean/max 8/7.81/8
Step  1100/2000   55.0% | t 55.000 | ETA 1m 39s | step 0.10s | KE 304.6029 | drift +13.25% | fluid 71.6682 | solid 232.9347
  Impulse FP iterations last/mean/max 8/7.80/8
Step  1200/2000   60.0% | t 60.000 | ETA 1m 28s | step 0.12s | KE 305.5174 | drift +13.59% | fluid 70.7440 | solid 234.7734
  Impulse FP iterations last/mean/max 8/7.80/8
Step  1300/2000   65.0% | t 65.000 | ETA 1m 17s | step 0.12s | KE 307.0937 | drift +14.18% | fluid 71.1318 | solid 235.9619
  Impulse FP iterations last/mean/max 8/7.80/8
Step  1400/2000   70.0% | t 70.000 | ETA 1m 6s | step 0.10s | KE 309.4398 | drift +15.05% | fluid 71.3079 | solid 238.1319
  Impulse FP iterations last/mean/max 7/7.79/8
Step  1500/2000   75.0% | t 75.000 | ETA 55s | step 0.11s | KE 312.1475 | drift +16.06% | fluid 71.4644 | solid 240.6831
  Impulse FP iterations last/mean/max 8/7.79/8
Step  1600/2000   80.0% | t 80.000 | ETA 44s | step 0.10s | KE 314.7223 | drift +17.01% | fluid 70.8410 | solid 243.8813
  Impulse FP iterations last/mean/max 8/7.80/8
Step  1700/2000   85.0% | t 85.000 | ETA 33s | step 0.10s | KE 316.6955 | drift +17.75% | fluid 71.4918 | solid 245.2036
  Impulse FP iterations last/mean/max 7/7.79/8
Step  1800/2000   90.0% | t 90.000 | ETA 22s | step 0.11s | KE 317.9483 | drift +18.21% | fluid 71.1104 | solid 246.8379
  Impulse FP iterations last/mean/max 8/7.79/8
Step  1900/2000   95.0% | t 95.000 | ETA 11s | step 0.11s | KE 318.6094 | drift +18.46% | fluid 71.2525 | solid 247.3569
  Impulse FP iterations last/mean/max 8/7.80/8
Solver finished successfully - good job!
Results saved successfully.

================== Run summary ==================
  Bodies:            2
  Triangles / nodes: 256 / 516
  Timesteps:         2000  (dt = 0.05)
  Simulated time:    0 -> 100
  First-step setup:  0.243 s
  Mean time/step:    0.1104 s  (excl. first step)
  Total wall time:   3m 40s
  Impulse FP iters last/mean/max: 8 / 7.793 / 8
  Approx impulse solves/step:     7.793
  Impulse start cache hits/direct: 1999 / 1
  Impulse global drift P/H:       1.402373e-8 / 3.087527e-2
  Impulse per-body max drift P/H: 2.078199e-8 / 2.523258e-3
  CPU cores:         256 available, 8 Rayon worker thread(s)
  Started:           2026-06-24 02:46:57
  Finished:          2026-06-24 02:50:38
  Output file:       /work/e643/e643/shared/multi_ellip/studies/departing_sphericity_sweep/runs/triaxial/heterogeneous_sphere/triaxial_heterogeneous_sphere_eps0p03_rho1_E0p5_sep8_run05_impulse_noproj/multiple_body_complete.dat
================================================
