
================ Simulation setup ================
  Run label:         /work/e643/e643/shared/multi_ellip/studies/departing_sphericity_sweep/runs/spheroid_oblate/homogeneous/spheroid_oblate_homogeneous_eps0p03_rho1_E0p5_sep8_run07_impulse_noproj/
  Started:           2026-06-24 02:30:07
  Input file:        /work/e643/e643/shared/multi_ellip/studies/departing_sphericity_sweep/runs/spheroid_oblate/homogeneous/spheroid_oblate_homogeneous_eps0p03_rho1_E0p5_sep8_run07_impulse_noproj/input.txt
  Output file:       /work/e643/e643/shared/multi_ellip/studies/departing_sphericity_sweep/runs/spheroid_oblate/homogeneous/spheroid_oblate_homogeneous_eps0p03_rho1_E0p5_sep8_run07_impulse_noproj/multiple_body_complete.dat
  Bodies:            2
  Fluid density:     1
  Mesh:              ndiv 2 -> 256 triangles / 516 nodes
  Simulated time:    0 -> 100  (dt = 0.05, ~2000 steps)
  Output cadence:    every 1 step(s)
  Output rows:       ~2001
  Progress cadence:  every 100 step(s)
  CPU cores:         256 available, 8 Rayon worker thread(s)
  Strong coupling:   disabled
  Impulse scheme:    enabled
  Hamiltonian step:  disabled
  Hamiltonian midpt: disabled
  Variational step:  disabled
  Energy projection: disabled
  Projection particular metric: Euclidean
  Fluid KE gradient: disabled  (eps = 0.001, scale = 1, linear = 1, angular = 1)
  Fluid KE discrete gradient: disabled
  Impulse pair metric correction: disabled  (mode = pair discrete-gradient, cutoff = all pairs, inner/outer = 0/0, eps = 0.001, linear scale = 1, angular scale = 0)
  Impulse metric correction: disabled  (internal load constraint = disabled)
  Impulse variational defect probe: disabled
  Impulse quadratic pressure: disabled  (scale = 1)
  Added-mass stab:   disabled
  Exact BEM geometry: disabled
  Exact singular BEM: disabled
  Legacy singular SLP diagnostic: disabled
  Phi-dot blend:     0 (off)

  Solver guidance:
    - Strong coupling: use for stiff close-coupled runs; slower but more implicit.
    - Impulse scheme: use when impulse/momentum conservation or KE drift is the focus. Recommended.
    - Added-mass stab: use for higher mesh counts (ndiv > 3) to preserve stability - deprecated.
================================================
Solver starting - good luck!

Initial state:
  Body  1
    density:          1.000000
    shape axes ratio: (1.000000, 1.000000, 0.915142)
    initial KE ratio: 0.500000
    position:         (-4.000000, 0.000000, 0.000000)
    velocity:         (0.556824, 2.614896, -4.887446)
    angular velocity: (-5.082404, -3.162685, -1.909190)
    orientation:      (w=-0.457115, i=0.034272, j=0.693396, k=-0.555943)
  Body  2
    density:          1.000000
    shape axes ratio: (1.000000, 1.000000, 0.915142)
    initial KE ratio: 0.500000
    position:         (4.000000, 0.000000, 0.000000)
    velocity:         (0.569270, 2.673348, -4.996698)
    angular velocity: (-3.339589, -2.082607, -4.897787)
    orientation:      (w=-0.682229, i=-0.644939, j=-0.168044, k=-0.300630)

Preparing first step: implicit scheme, no bootstrap passes required.
First step may take longer than later steps.

First step completed in 0.214 s.

Step   100/2000    5.0% | t 5.000 | ETA 3m 27s | step 0.12s | KE 272.8068 | drift +0.56% | fluid 71.9268 | solid 200.8800
  Impulse FP iterations last/mean/max 9/8.36/9
Step   200/2000   10.0% | t 10.000 | ETA 3m 21s | step 0.12s | KE 269.2646 | drift -0.75% | fluid 71.6323 | solid 197.6322
  Impulse FP iterations last/mean/max 9/8.46/9
Step   300/2000   15.0% | t 15.000 | ETA 3m 12s | step 0.10s | KE 260.2178 | drift -4.08% | fluid 71.2631 | solid 188.9547
  Impulse FP iterations last/mean/max 8/8.52/9
Step   400/2000   20.0% | t 20.000 | ETA 3m 2s | step 0.11s | KE 260.1117 | drift -4.12% | fluid 71.1190 | solid 188.9927
  Impulse FP iterations last/mean/max 8/8.56/9
Step   500/2000   25.0% | t 25.000 | ETA 2m 53s | step 0.12s | KE 276.7899 | drift +2.02% | fluid 72.0739 | solid 204.7160
  Impulse FP iterations last/mean/max 9/8.60/9
Step   600/2000   30.0% | t 30.000 | ETA 2m 43s | step 0.12s | KE 435.4069 | drift +60.49% | fluid 72.4491 | solid 362.9578
  Impulse FP iterations last/mean/max 9/8.65/9
Step   700/2000   35.0% | t 35.000 | ETA 2m 33s | step 0.14s | KE 1752.4635 | drift +545.96% | fluid 76.8103 | solid 1675.6532
  Impulse FP iterations last/mean/max 10/8.73/10
Step   800/2000   40.0% | t 40.000 | ETA 2m 26s | step 0.18s | KE 10198.2580 | drift +3659.07% | fluid 100.0609 | solid 10098.1971
  Impulse FP iterations last/mean/max 11/8.91/30
Step   900/2000   45.0% | t 45.000 | ETA 2m 28s | step 0.42s | KE 19127.8074 | drift +6950.49% | fluid 112.6282 | solid 19015.1792
  Impulse FP iterations last/mean/max 25/9.51/30
Step  1000/2000   50.0% | t 50.000 | ETA 2m 25s | step 0.16s | KE 10759.7494 | drift +3866.03% | fluid 105.4783 | solid 10654.2711
  Impulse FP iterations last/mean/max 10/10.01/30
Step  1100/2000   55.0% | t 55.000 | ETA 2m 15s | step 0.12s | KE 9230.8594 | drift +3302.48% | fluid 124.1356 | solid 9106.7239
  Impulse FP iterations last/mean/max 9/10.22/30
Step  1200/2000   60.0% | t 60.000 | ETA 1m 58s | step 0.11s | KE 9238.7122 | drift +3305.38% | fluid 123.8872 | solid 9114.8251
  Impulse FP iterations last/mean/max 8/10.10/30
Step  1300/2000   65.0% | t 65.000 | ETA 1m 41s | step 0.10s | KE 9238.8112 | drift +3305.41% | fluid 123.7439 | solid 9115.0673
  Impulse FP iterations last/mean/max 8/9.96/30
Step  1400/2000   70.0% | t 70.000 | ETA 1m 25s | step 0.10s | KE 9238.7869 | drift +3305.41% | fluid 123.6227 | solid 9115.1642
  Impulse FP iterations last/mean/max 8/9.84/30
Step  1500/2000   75.0% | t 75.000 | ETA 1m 10s | step 0.10s | KE 9238.9391 | drift +3305.46% | fluid 123.5505 | solid 9115.3886
  Impulse FP iterations last/mean/max 8/9.73/30
Step  1600/2000   80.0% | t 80.000 | ETA 55s | step 0.10s | KE 9239.2711 | drift +3305.58% | fluid 123.5398 | solid 9115.7313
  Impulse FP iterations last/mean/max 8/9.64/30
Step  1700/2000   85.0% | t 85.000 | ETA 40s | step 0.09s | KE 9239.7380 | drift +3305.76% | fluid 123.5952 | solid 9116.1428
  Impulse FP iterations last/mean/max 8/9.56/30
Step  1800/2000   90.0% | t 90.000 | ETA 26s | step 0.10s | KE 9240.2920 | drift +3305.96% | fluid 123.7147 | solid 9116.5773
  Impulse FP iterations last/mean/max 8/9.49/30
Step  1900/2000   95.0% | t 95.000 | ETA 13s | step 0.10s | KE 9240.8993 | drift +3306.18% | fluid 123.8918 | solid 9117.0075
  Impulse FP iterations last/mean/max 8/9.42/30
Solver finished successfully - good job!
Results saved successfully.

================== Run summary ==================
  Bodies:            2
  Triangles / nodes: 256 / 516
  Timesteps:         2000  (dt = 0.05)
  Simulated time:    0 -> 100
  First-step setup:  0.214 s
  Mean time/step:    0.1305 s  (excl. first step)
  Total wall time:   4m 21s
  Impulse FP iters last/mean/max: 8 / 9.363 / 30
  Approx impulse solves/step:     9.363
  Impulse start cache hits/direct: 1999 / 1
  Impulse global drift P/H:       3.629760e-1 / 4.012190e2
  Impulse per-body max drift P/H: 5.092546e-1 / 3.823239e1
  CPU cores:         256 available, 8 Rayon worker thread(s)
  Started:           2026-06-24 02:30:07
  Finished:          2026-06-24 02:34:29
  Output file:       /work/e643/e643/shared/multi_ellip/studies/departing_sphericity_sweep/runs/spheroid_oblate/homogeneous/spheroid_oblate_homogeneous_eps0p03_rho1_E0p5_sep8_run07_impulse_noproj/multiple_body_complete.dat
================================================
