
================ Simulation setup ================
  Run label:         /work/e643/e643/shared/multi_ellip/studies/two_body_paper_sweeps/runs/ellipsoid_1_0p8_0p6/ellipsoid_1_0p8_0p6_rho0p03_E30_sep11_run02_impulse_noproj/
  Started:           2026-06-22 20:15:48
  Input file:        /work/e643/e643/shared/multi_ellip/studies/two_body_paper_sweeps/runs/ellipsoid_1_0p8_0p6/ellipsoid_1_0p8_0p6_rho0p03_E30_sep11_run02_impulse_noproj/input.txt
  Output file:       /work/e643/e643/shared/multi_ellip/studies/two_body_paper_sweeps/runs/ellipsoid_1_0p8_0p6/ellipsoid_1_0p8_0p6_rho0p03_E30_sep11_run02_impulse_noproj/multiple_body_complete.dat
  Bodies:            2
  Fluid density:     1
  Mesh:              ndiv 2 -> 256 triangles / 516 nodes
  Simulated time:    0 -> 100  (dt = 0.05, ~2000 steps)
  Output cadence:    every 1 step(s)
  Output rows:       ~2001
  Progress cadence:  every 100 step(s)
  CPU cores:         256 available, 8 Rayon worker thread(s)
  Strong coupling:   disabled
  Impulse scheme:    enabled
  Hamiltonian step:  disabled
  Hamiltonian midpt: disabled
  Variational step:  disabled
  Energy projection: disabled
  Projection particular metric: Euclidean
  Fluid KE gradient: disabled  (eps = 0.001, scale = 1, linear = 1, angular = 1)
  Fluid KE discrete gradient: disabled
  Impulse pair metric correction: disabled  (mode = pair discrete-gradient, cutoff = all pairs, inner/outer = 0/0, eps = 0.001, linear scale = 1, angular scale = 0)
  Impulse metric correction: disabled  (internal load constraint = disabled)
  Impulse variational defect probe: disabled
  Impulse quadratic pressure: disabled  (scale = 1)
  Added-mass stab:   disabled
  Exact BEM geometry: disabled
  Exact singular BEM: disabled
  Legacy singular SLP diagnostic: disabled
  Phi-dot blend:     0 (off)

  Solver guidance:
    - Strong coupling: use for stiff close-coupled runs; slower but more implicit.
    - Impulse scheme: use when impulse/momentum conservation or KE drift is the focus. Recommended.
    - Added-mass stab: use for higher mesh counts (ndiv > 3) to preserve stability - deprecated.
================================================
Solver starting - good luck!

Initial state:
  Body  1
    density:          0.030000
    shape axes ratio: (1.000000, 0.800000, 0.600000)
    initial KE ratio: 30.000000
    position:         (-5.500000, 0.000000, 0.000000)
    velocity:         (0.599582, -0.346526, -0.349335)
    angular velocity: (-0.744764, 5.690518, 2.557684)
    orientation:      (w=0.577350, i=0.577350, j=0.577350, k=0.000000)
  Body  2
    density:          0.030000
    shape axes ratio: (1.000000, 0.800000, 0.600000)
    initial KE ratio: 30.000000
    position:         (5.500000, 0.000000, 0.000000)
    velocity:         (0.611711, -0.353536, -0.356402)
    angular velocity: (3.296823, -0.855321, -5.279943)
    orientation:      (w=0.577350, i=-0.577350, j=0.000000, k=0.577350)

Preparing first step: implicit scheme, no bootstrap passes required.
First step may take longer than later steps.

First step completed in 0.597 s.

Step   100/2000    5.0% | t 5.000 | ETA 12m 31s | step 0.38s | KE 9.1765 | drift +1.43% | fluid 6.4070 | solid 2.7695
  Impulse FP iterations last/mean/max 29/29.59/30
Step   200/2000   10.0% | t 10.000 | ETA 11m 52s | step 0.38s | KE 9.2888 | drift +2.68% | fluid 7.3626 | solid 1.9262
  Impulse FP iterations last/mean/max 30/29.56/30
Step   300/2000   15.0% | t 15.000 | ETA 11m 11s | step 0.40s | KE 9.3072 | drift +2.88% | fluid 7.1103 | solid 2.1968
  Impulse FP iterations last/mean/max 30/29.53/30
Step   400/2000   20.0% | t 20.000 | ETA 10m 32s | step 0.40s | KE 9.5001 | drift +5.01% | fluid 7.6540 | solid 1.8460
  Impulse FP iterations last/mean/max 30/29.55/30
Step   500/2000   25.0% | t 25.000 | ETA 9m 52s | step 0.39s | KE 9.5809 | drift +5.90% | fluid 7.1379 | solid 2.4430
  Impulse FP iterations last/mean/max 30/29.54/30
Step   600/2000   30.0% | t 30.000 | ETA 9m 11s | step 0.40s | KE 9.5993 | drift +6.11% | fluid 7.2098 | solid 2.3895
  Impulse FP iterations last/mean/max 30/29.54/30
Step   700/2000   35.0% | t 35.000 | ETA 8m 29s | step 0.37s | KE 9.5434 | drift +5.49% | fluid 7.5096 | solid 2.0338
  Impulse FP iterations last/mean/max 30/29.50/30
Step   800/2000   40.0% | t 40.000 | ETA 7m 48s | step 0.42s | KE 9.4670 | drift +4.64% | fluid 6.6847 | solid 2.7823
  Impulse FP iterations last/mean/max 30/29.49/30
Step   900/2000   45.0% | t 45.000 | ETA 7m 7s | step 0.33s | KE 9.4625 | drift +4.59% | fluid 6.1779 | solid 3.2846
  Impulse FP iterations last/mean/max 25/29.43/30
Step  1000/2000   50.0% | t 50.000 | ETA 6m 28s | step 0.40s | KE 9.4201 | drift +4.13% | fluid 7.1351 | solid 2.2850
  Impulse FP iterations last/mean/max 30/29.43/30
Step  1100/2000   55.0% | t 55.000 | ETA 5m 48s | step 0.36s | KE 9.3738 | drift +3.61% | fluid 6.7248 | solid 2.6490
  Impulse FP iterations last/mean/max 30/29.40/30
Step  1200/2000   60.0% | t 60.000 | ETA 5m 9s | step 0.39s | KE 9.3550 | drift +3.41% | fluid 7.0602 | solid 2.2948
  Impulse FP iterations last/mean/max 29/29.36/30
Step  1300/2000   65.0% | t 65.000 | ETA 4m 30s | step 0.39s | KE 9.3217 | drift +3.04% | fluid 6.6920 | solid 2.6297
  Impulse FP iterations last/mean/max 30/29.35/30
Step  1400/2000   70.0% | t 70.000 | ETA 3m 51s | step 0.40s | KE 9.3280 | drift +3.11% | fluid 7.0504 | solid 2.2776
  Impulse FP iterations last/mean/max 30/29.34/30
Step  1500/2000   75.0% | t 75.000 | ETA 3m 12s | step 0.40s | KE 9.2763 | drift +2.54% | fluid 6.5575 | solid 2.7188
  Impulse FP iterations last/mean/max 30/29.36/30
Step  1600/2000   80.0% | t 80.000 | ETA 2m 34s | step 0.40s | KE 9.2817 | drift +2.60% | fluid 6.9123 | solid 2.3694
  Impulse FP iterations last/mean/max 30/29.34/30
Step  1700/2000   85.0% | t 85.000 | ETA 1m 55s | step 0.38s | KE 9.2883 | drift +2.67% | fluid 7.4177 | solid 1.8706
  Impulse FP iterations last/mean/max 30/29.31/30
Step  1800/2000   90.0% | t 90.000 | ETA 1m 16s | step 0.40s | KE 9.3223 | drift +3.05% | fluid 6.8583 | solid 2.4640
  Impulse FP iterations last/mean/max 30/29.31/30
Step  1900/2000   95.0% | t 95.000 | ETA 38s | step 0.29s | KE 9.3914 | drift +3.81% | fluid 7.8197 | solid 1.5717
  Impulse FP iterations last/mean/max 30/29.32/30
Solver finished successfully - good job!
Results saved successfully.

================== Run summary ==================
  Bodies:            2
  Triangles / nodes: 256 / 516
  Timesteps:         2000  (dt = 0.05)
  Simulated time:    0 -> 100
  First-step setup:  0.597 s
  Mean time/step:    0.3758 s  (excl. first step)
  Total wall time:   12m 31s
  Impulse FP iters last/mean/max: 30 / 29.331 / 30
  Approx impulse solves/step:     29.331
  Impulse start cache hits/direct: 1999 / 1
  Impulse global drift P/H:       4.874090e-7 / 1.053973e-2
  Impulse per-body max drift P/H: 5.710460e-7 / 9.274988e-4
  CPU cores:         256 available, 8 Rayon worker thread(s)
  Started:           2026-06-22 20:15:48
  Finished:          2026-06-22 20:28:23
  Output file:       /work/e643/e643/shared/multi_ellip/studies/two_body_paper_sweeps/runs/ellipsoid_1_0p8_0p6/ellipsoid_1_0p8_0p6_rho0p03_E30_sep11_run02_impulse_noproj/multiple_body_complete.dat
================================================
