
================ Simulation setup ================
  Run label:         /work/e643/e643/shared/multi_ellip/studies/two_body_paper_sweeps/runs/ellipsoid_1_0p8_0p6/ellipsoid_1_0p8_0p6_rho1_E30_sep11_run02_impulse_noproj/
  Started:           2026-06-22 19:40:05
  Input file:        /work/e643/e643/shared/multi_ellip/studies/two_body_paper_sweeps/runs/ellipsoid_1_0p8_0p6/ellipsoid_1_0p8_0p6_rho1_E30_sep11_run02_impulse_noproj/input.txt
  Output file:       /work/e643/e643/shared/multi_ellip/studies/two_body_paper_sweeps/runs/ellipsoid_1_0p8_0p6/ellipsoid_1_0p8_0p6_rho1_E30_sep11_run02_impulse_noproj/multiple_body_complete.dat
  Bodies:            2
  Fluid density:     1
  Mesh:              ndiv 2 -> 256 triangles / 516 nodes
  Simulated time:    0 -> 100  (dt = 0.05, ~2000 steps)
  Output cadence:    every 1 step(s)
  Output rows:       ~2001
  Progress cadence:  every 100 step(s)
  CPU cores:         256 available, 8 Rayon worker thread(s)
  Strong coupling:   disabled
  Impulse scheme:    enabled
  Hamiltonian step:  disabled
  Hamiltonian midpt: disabled
  Variational step:  disabled
  Energy projection: disabled
  Projection particular metric: Euclidean
  Fluid KE gradient: disabled  (eps = 0.001, scale = 1, linear = 1, angular = 1)
  Fluid KE discrete gradient: disabled
  Impulse pair metric correction: disabled  (mode = pair discrete-gradient, cutoff = all pairs, inner/outer = 0/0, eps = 0.001, linear scale = 1, angular scale = 0)
  Impulse metric correction: disabled  (internal load constraint = disabled)
  Impulse variational defect probe: disabled
  Impulse quadratic pressure: disabled  (scale = 1)
  Added-mass stab:   disabled
  Exact BEM geometry: disabled
  Exact singular BEM: disabled
  Legacy singular SLP diagnostic: disabled
  Phi-dot blend:     0 (off)

  Solver guidance:
    - Strong coupling: use for stiff close-coupled runs; slower but more implicit.
    - Impulse scheme: use when impulse/momentum conservation or KE drift is the focus. Recommended.
    - Added-mass stab: use for higher mesh counts (ndiv > 3) to preserve stability - deprecated.
================================================
Solver starting - good luck!

Initial state:
  Body  1
    density:          1.000000
    shape axes ratio: (1.000000, 0.800000, 0.600000)
    initial KE ratio: 30.000000
    position:         (-5.500000, 0.000000, 0.000000)
    velocity:         (-0.050243, 0.210578, 0.716813)
    angular velocity: (-2.504611, -5.722930, 0.673363)
    orientation:      (w=0.577350, i=0.577350, j=0.577350, k=0.000000)
  Body  2
    density:          1.000000
    shape axes ratio: (1.000000, 0.800000, 0.600000)
    initial KE ratio: 30.000000
    position:         (5.500000, 0.000000, 0.000000)
    velocity:         (-0.054780, 0.229592, 0.781540)
    angular velocity: (-1.497510, -2.684843, 5.479736)
    orientation:      (w=0.577350, i=-0.577350, j=0.000000, k=0.577350)

Preparing first step: implicit scheme, no bootstrap passes required.
First step may take longer than later steps.

First step completed in 0.292 s.

Step   100/2000    5.0% | t 5.000 | ETA 4m 30s | step 0.13s | KE 68.4717 | drift +0.03% | fluid 5.7462 | solid 62.7255
  Impulse FP iterations last/mean/max 10/10.40/11
Step   200/2000   10.0% | t 10.000 | ETA 4m 16s | step 0.14s | KE 68.4938 | drift +0.06% | fluid 4.9768 | solid 63.5169
  Impulse FP iterations last/mean/max 11/10.36/11
Step   300/2000   15.0% | t 15.000 | ETA 4m 2s | step 0.14s | KE 68.4931 | drift +0.06% | fluid 5.7153 | solid 62.7778
  Impulse FP iterations last/mean/max 10/10.38/11
Step   400/2000   20.0% | t 20.000 | ETA 3m 46s | step 0.13s | KE 68.4828 | drift +0.04% | fluid 5.8697 | solid 62.6131
  Impulse FP iterations last/mean/max 10/10.36/11
Step   500/2000   25.0% | t 25.000 | ETA 3m 31s | step 0.14s | KE 68.4700 | drift +0.03% | fluid 7.0336 | solid 61.4364
  Impulse FP iterations last/mean/max 11/10.34/11
Step   600/2000   30.0% | t 30.000 | ETA 3m 12s | step 0.13s | KE 68.4576 | drift +0.01% | fluid 6.8294 | solid 61.6282
  Impulse FP iterations last/mean/max 11/10.32/11
Step   700/2000   35.0% | t 35.000 | ETA 2m 55s | step 0.15s | KE 68.4473 | drift -0.01% | fluid 6.2413 | solid 62.2060
  Impulse FP iterations last/mean/max 11/10.32/11
Step   800/2000   40.0% | t 40.000 | ETA 2m 41s | step 0.12s | KE 68.4458 | drift -0.01% | fluid 5.8368 | solid 62.6090
  Impulse FP iterations last/mean/max 10/10.30/11
Step   900/2000   45.0% | t 45.000 | ETA 2m 28s | step 0.14s | KE 68.4405 | drift -0.02% | fluid 4.8496 | solid 63.5909
  Impulse FP iterations last/mean/max 11/10.30/11
Step  1000/2000   50.0% | t 50.000 | ETA 2m 15s | step 0.14s | KE 68.4234 | drift -0.04% | fluid 5.8790 | solid 62.5444
  Impulse FP iterations last/mean/max 10/10.29/11
Step  1100/2000   55.0% | t 55.000 | ETA 2m 2s | step 0.13s | KE 68.4293 | drift -0.03% | fluid 6.5496 | solid 61.8797
  Impulse FP iterations last/mean/max 10/10.29/11
Step  1200/2000   60.0% | t 60.000 | ETA 1m 48s | step 0.13s | KE 68.4363 | drift -0.02% | fluid 6.6654 | solid 61.7709
  Impulse FP iterations last/mean/max 10/10.29/11
Step  1300/2000   65.0% | t 65.000 | ETA 1m 35s | step 0.15s | KE 68.4264 | drift -0.04% | fluid 7.3609 | solid 61.0654
  Impulse FP iterations last/mean/max 11/10.29/11
Step  1400/2000   70.0% | t 70.000 | ETA 1m 21s | step 0.14s | KE 68.4366 | drift -0.02% | fluid 6.0164 | solid 62.4202
  Impulse FP iterations last/mean/max 11/10.29/11
Step  1500/2000   75.0% | t 75.000 | ETA 1m 8s | step 0.13s | KE 68.4348 | drift -0.03% | fluid 5.2435 | solid 63.1913
  Impulse FP iterations last/mean/max 10/10.30/11
Step  1600/2000   80.0% | t 80.000 | ETA 54s | step 0.13s | KE 68.4284 | drift -0.04% | fluid 5.4232 | solid 63.0051
  Impulse FP iterations last/mean/max 10/10.30/11
Step  1700/2000   85.0% | t 85.000 | ETA 40s | step 0.13s | KE 68.4277 | drift -0.04% | fluid 5.4164 | solid 63.0113
  Impulse FP iterations last/mean/max 10/10.30/11
Step  1800/2000   90.0% | t 90.000 | ETA 27s | step 0.13s | KE 68.4022 | drift -0.07% | fluid 6.9653 | solid 61.4369
  Impulse FP iterations last/mean/max 11/10.31/11
Step  1900/2000   95.0% | t 95.000 | ETA 13s | step 0.14s | KE 68.3787 | drift -0.11% | fluid 6.9076 | solid 61.4711
  Impulse FP iterations last/mean/max 11/10.31/11
Solver finished successfully - good job!
Results saved successfully.

================== Run summary ==================
  Bodies:            2
  Triangles / nodes: 256 / 516
  Timesteps:         2000  (dt = 0.05)
  Simulated time:    0 -> 100
  First-step setup:  0.292 s
  Mean time/step:    0.1359 s  (excl. first step)
  Total wall time:   4m 31s
  Impulse FP iters last/mean/max: 11 / 10.302 / 11
  Approx impulse solves/step:     10.303
  Impulse start cache hits/direct: 1999 / 1
  Impulse global drift P/H:       2.205785e-8 / 1.580271e-2
  Impulse per-body max drift P/H: 5.189014e-8 / 7.567390e-3
  CPU cores:         256 available, 8 Rayon worker thread(s)
  Started:           2026-06-22 19:40:05
  Finished:          2026-06-22 19:44:37
  Output file:       /work/e643/e643/shared/multi_ellip/studies/two_body_paper_sweeps/runs/ellipsoid_1_0p8_0p6/ellipsoid_1_0p8_0p6_rho1_E30_sep11_run02_impulse_noproj/multiple_body_complete.dat
================================================
