
================ Simulation setup ================
  Run label:         /work/e643/e643/shared/multi_ellip/studies/two_body_paper_sweeps/runs/ellipsoid_1_0p8_0p6/ellipsoid_1_0p8_0p6_rho0p1_E4_sep11_run03_impulse_noproj/
  Started:           2026-06-24 02:14:39
  Input file:        /work/e643/e643/shared/multi_ellip/studies/two_body_paper_sweeps/runs/ellipsoid_1_0p8_0p6/ellipsoid_1_0p8_0p6_rho0p1_E4_sep11_run03_impulse_noproj/input.txt
  Output file:       /work/e643/e643/shared/multi_ellip/studies/two_body_paper_sweeps/runs/ellipsoid_1_0p8_0p6/ellipsoid_1_0p8_0p6_rho0p1_E4_sep11_run03_impulse_noproj/multiple_body_complete.dat
  Bodies:            2
  Fluid density:     1
  Mesh:              ndiv 2 -> 256 triangles / 516 nodes
  Simulated time:    0 -> 100  (dt = 0.05, ~2000 steps)
  Output cadence:    every 1 step(s)
  Output rows:       ~2001
  Progress cadence:  every 100 step(s)
  CPU cores:         256 available, 8 Rayon worker thread(s)
  Strong coupling:   disabled
  Impulse scheme:    enabled
  Hamiltonian step:  disabled
  Hamiltonian midpt: disabled
  Variational step:  disabled
  Energy projection: disabled
  Projection particular metric: Euclidean
  Fluid KE gradient: disabled  (eps = 0.001, scale = 1, linear = 1, angular = 1)
  Fluid KE discrete gradient: disabled
  Impulse pair metric correction: disabled  (mode = pair discrete-gradient, cutoff = all pairs, inner/outer = 0/0, eps = 0.001, linear scale = 1, angular scale = 0)
  Impulse metric correction: disabled  (internal load constraint = disabled)
  Impulse variational defect probe: disabled
  Impulse quadratic pressure: disabled  (scale = 1)
  Added-mass stab:   disabled
  Exact BEM geometry: disabled
  Exact singular BEM: disabled
  Legacy singular SLP diagnostic: disabled
  Phi-dot blend:     0 (off)

  Solver guidance:
    - Strong coupling: use for stiff close-coupled runs; slower but more implicit.
    - Impulse scheme: use when impulse/momentum conservation or KE drift is the focus. Recommended.
    - Added-mass stab: use for higher mesh counts (ndiv > 3) to preserve stability - deprecated.
================================================
Solver starting - good luck!

Initial state:
  Body  1
    density:          0.100000
    shape axes ratio: (1.000000, 0.800000, 0.600000)
    initial KE ratio: 4.000000
    position:         (-5.500000, 0.000000, 0.000000)
    velocity:         (0.590642, -0.986306, -1.911304)
    angular velocity: (-2.060187, -1.920902, 5.616421)
    orientation:      (w=-0.360561, i=0.700730, j=0.393848, k=0.473136)
  Body  2
    density:          0.100000
    shape axes ratio: (1.000000, 0.800000, 0.600000)
    initial KE ratio: 4.000000
    position:         (5.500000, 0.000000, 0.000000)
    velocity:         (0.480461, -0.802317, -1.554762)
    angular velocity: (6.087255, 1.545173, -0.190204)
    orientation:      (w=-0.544222, i=-0.772033, j=0.260943, k=-0.199240)

Preparing first step: implicit scheme, no bootstrap passes required.
First step may take longer than later steps.

First step completed in 0.409 s.

Step   100/2000    5.0% | t 5.000 | ETA 8m 26s | step 0.30s | KE 23.4509 | drift +0.35% | fluid 14.4439 | solid 9.0069
  Impulse FP iterations last/mean/max 21/18.74/21
Step   200/2000   10.0% | t 10.000 | ETA 8m 1s | step 0.28s | KE 23.0873 | drift -1.21% | fluid 14.3671 | solid 8.7202
  Impulse FP iterations last/mean/max 19/18.71/21
Step   300/2000   15.0% | t 15.000 | ETA 7m 34s | step 0.27s | KE 22.9434 | drift -1.82% | fluid 13.3284 | solid 9.6150
  Impulse FP iterations last/mean/max 18/18.64/21
Step   400/2000   20.0% | t 20.000 | ETA 7m 5s | step 0.22s | KE 23.1175 | drift -1.08% | fluid 14.7891 | solid 8.3283
  Impulse FP iterations last/mean/max 17/18.61/21
Step   500/2000   25.0% | t 25.000 | ETA 6m 32s | step 0.24s | KE 23.0966 | drift -1.17% | fluid 13.5816 | solid 9.5151
  Impulse FP iterations last/mean/max 18/18.61/21
Step   600/2000   30.0% | t 30.000 | ETA 6m 4s | step 0.24s | KE 23.1827 | drift -0.80% | fluid 13.9399 | solid 9.2428
  Impulse FP iterations last/mean/max 18/18.64/21
Step   700/2000   35.0% | t 35.000 | ETA 5m 38s | step 0.26s | KE 23.2286 | drift -0.60% | fluid 13.6710 | solid 9.5577
  Impulse FP iterations last/mean/max 19/18.58/21
Step   800/2000   40.0% | t 40.000 | ETA 5m 13s | step 0.25s | KE 23.0963 | drift -1.17% | fluid 14.2243 | solid 8.8720
  Impulse FP iterations last/mean/max 18/18.56/21
Step   900/2000   45.0% | t 45.000 | ETA 4m 47s | step 0.25s | KE 23.1532 | drift -0.92% | fluid 14.0812 | solid 9.0721
  Impulse FP iterations last/mean/max 18/18.55/21
Step  1000/2000   50.0% | t 50.000 | ETA 4m 22s | step 0.25s | KE 23.2157 | drift -0.66% | fluid 14.7831 | solid 8.4326
  Impulse FP iterations last/mean/max 18/18.57/21
Step  1100/2000   55.0% | t 55.000 | ETA 3m 56s | step 0.27s | KE 23.2039 | drift -0.71% | fluid 14.9746 | solid 8.2292
  Impulse FP iterations last/mean/max 19/18.58/21
Step  1200/2000   60.0% | t 60.000 | ETA 3m 30s | step 0.27s | KE 23.1472 | drift -0.95% | fluid 15.1475 | solid 7.9998
  Impulse FP iterations last/mean/max 19/18.57/21
Step  1300/2000   65.0% | t 65.000 | ETA 3m 4s | step 0.26s | KE 23.1447 | drift -0.96% | fluid 12.9767 | solid 10.1681
  Impulse FP iterations last/mean/max 18/18.56/21
Step  1400/2000   70.0% | t 70.000 | ETA 2m 38s | step 0.29s | KE 23.0897 | drift -1.20% | fluid 13.7397 | solid 9.3501
  Impulse FP iterations last/mean/max 20/18.58/21
Step  1500/2000   75.0% | t 75.000 | ETA 2m 12s | step 0.28s | KE 23.1929 | drift -0.75% | fluid 14.0902 | solid 9.1026
  Impulse FP iterations last/mean/max 20/18.59/21
Step  1600/2000   80.0% | t 80.000 | ETA 1m 45s | step 0.28s | KE 23.1677 | drift -0.86% | fluid 13.8772 | solid 9.2905
  Impulse FP iterations last/mean/max 19/18.57/21
Step  1700/2000   85.0% | t 85.000 | ETA 1m 19s | step 0.29s | KE 23.1149 | drift -1.09% | fluid 13.1418 | solid 9.9731
  Impulse FP iterations last/mean/max 20/18.57/21
Step  1800/2000   90.0% | t 90.000 | ETA 52s | step 0.30s | KE 23.1259 | drift -1.04% | fluid 14.6543 | solid 8.4716
  Impulse FP iterations last/mean/max 21/18.56/21
Step  1900/2000   95.0% | t 95.000 | ETA 26s | step 0.24s | KE 23.1687 | drift -0.86% | fluid 15.3189 | solid 7.8499
  Impulse FP iterations last/mean/max 17/18.56/22
Solver finished successfully - good job!
Results saved successfully.

================== Run summary ==================
  Bodies:            2
  Triangles / nodes: 256 / 516
  Timesteps:         2000  (dt = 0.05)
  Simulated time:    0 -> 100
  First-step setup:  0.409 s
  Mean time/step:    0.2641 s  (excl. first step)
  Total wall time:   8m 48s
  Impulse FP iters last/mean/max: 20 / 18.559 / 22
  Approx impulse solves/step:     18.559
  Impulse start cache hits/direct: 1999 / 1
  Impulse global drift P/H:       4.183342e-8 / 5.722705e-3
  Impulse per-body max drift P/H: 5.202920e-8 / 1.590808e-3
  CPU cores:         256 available, 8 Rayon worker thread(s)
  Started:           2026-06-24 02:14:39
  Finished:          2026-06-24 02:23:28
  Output file:       /work/e643/e643/shared/multi_ellip/studies/two_body_paper_sweeps/runs/ellipsoid_1_0p8_0p6/ellipsoid_1_0p8_0p6_rho0p1_E4_sep11_run03_impulse_noproj/multiple_body_complete.dat
================================================
