
================ Simulation setup ================
  Run label:         /work/e643/e643/shared/multi_ellip/studies/two_body_paper_sweeps/runs/ellipsoid_1_0p8_0p6/ellipsoid_1_0p8_0p6_rho0p03_E1p5_sep3_run05_impulse_noproj/
  Started:           2026-06-24 02:36:26
  Input file:        /work/e643/e643/shared/multi_ellip/studies/two_body_paper_sweeps/runs/ellipsoid_1_0p8_0p6/ellipsoid_1_0p8_0p6_rho0p03_E1p5_sep3_run05_impulse_noproj/input.txt
  Output file:       /work/e643/e643/shared/multi_ellip/studies/two_body_paper_sweeps/runs/ellipsoid_1_0p8_0p6/ellipsoid_1_0p8_0p6_rho0p03_E1p5_sep3_run05_impulse_noproj/multiple_body_complete.dat
  Bodies:            2
  Fluid density:     1
  Mesh:              ndiv 2 -> 256 triangles / 516 nodes
  Simulated time:    0 -> 100  (dt = 0.05, ~2000 steps)
  Output cadence:    every 1 step(s)
  Output rows:       ~2001
  Progress cadence:  every 100 step(s)
  CPU cores:         256 available, 8 Rayon worker thread(s)
  Strong coupling:   disabled
  Impulse scheme:    enabled
  Hamiltonian step:  disabled
  Hamiltonian midpt: disabled
  Variational step:  disabled
  Energy projection: disabled
  Projection particular metric: Euclidean
  Fluid KE gradient: disabled  (eps = 0.001, scale = 1, linear = 1, angular = 1)
  Fluid KE discrete gradient: disabled
  Impulse pair metric correction: disabled  (mode = pair discrete-gradient, cutoff = all pairs, inner/outer = 0/0, eps = 0.001, linear scale = 1, angular scale = 0)
  Impulse metric correction: disabled  (internal load constraint = disabled)
  Impulse variational defect probe: disabled
  Impulse quadratic pressure: disabled  (scale = 1)
  Added-mass stab:   disabled
  Exact BEM geometry: disabled
  Exact singular BEM: disabled
  Legacy singular SLP diagnostic: disabled
  Phi-dot blend:     0 (off)

  Solver guidance:
    - Strong coupling: use for stiff close-coupled runs; slower but more implicit.
    - Impulse scheme: use when impulse/momentum conservation or KE drift is the focus. Recommended.
    - Added-mass stab: use for higher mesh counts (ndiv > 3) to preserve stability - deprecated.
================================================
Solver starting - good luck!

Initial state:
  Body  1
    density:          0.030000
    shape axes ratio: (1.000000, 0.800000, 0.600000)
    initial KE ratio: 1.500000
    position:         (-1.500000, 0.000000, 0.000000)
    velocity:         (0.422335, 3.046239, 1.633376)
    angular velocity: (0.732737, 5.557501, 2.838257)
    orientation:      (w=-0.112180, i=-0.799999, j=-0.437973, k=0.394457)
  Body  2
    density:          0.030000
    shape axes ratio: (1.000000, 0.800000, 0.600000)
    initial KE ratio: 1.500000
    position:         (1.500000, 0.000000, 0.000000)
    velocity:         (0.448211, 3.232875, 1.733449)
    angular velocity: (-1.553885, -1.203199, 5.967929)
    orientation:      (w=-0.296168, i=0.549742, j=0.414172, k=-0.662216)

Preparing first step: implicit scheme, no bootstrap passes required.
First step may take longer than later steps.

First step completed in 0.563 s.

Step   100/2000    5.0% | t 5.000 | ETA 12m 55s | step 0.37s | KE 47.0689 | drift +1.65% | fluid 41.3280 | solid 5.7409
  Impulse FP iterations last/mean/max 30/29.70/30
Step   200/2000   10.0% | t 10.000 | ETA 11m 46s | step 0.36s | KE 52.4785 | drift +13.33% | fluid 46.8394 | solid 5.6391
  Impulse FP iterations last/mean/max 28/29.76/30
Step   300/2000   15.0% | t 15.000 | ETA 11m 1s | step 0.38s | KE 51.1989 | drift +10.57% | fluid 46.1578 | solid 5.0411
  Impulse FP iterations last/mean/max 30/29.76/30
Step   400/2000   20.0% | t 20.000 | ETA 10m 15s | step 0.40s | KE 50.4992 | drift +9.06% | fluid 43.5443 | solid 6.9548
  Impulse FP iterations last/mean/max 29/29.75/30
Step   500/2000   25.0% | t 25.000 | ETA 9m 33s | step 0.36s | KE 51.3247 | drift +10.84% | fluid 46.0223 | solid 5.3024
  Impulse FP iterations last/mean/max 30/29.78/30
Step   600/2000   30.0% | t 30.000 | ETA 8m 51s | step 0.35s | KE 51.0443 | drift +10.24% | fluid 44.9685 | solid 6.0758
  Impulse FP iterations last/mean/max 30/29.80/30
Step   700/2000   35.0% | t 35.000 | ETA 8m 13s | step 0.35s | KE 50.8857 | drift +9.89% | fluid 43.6466 | solid 7.2391
  Impulse FP iterations last/mean/max 30/29.78/30
Step   800/2000   40.0% | t 40.000 | ETA 7m 36s | step 0.41s | KE 50.9249 | drift +9.98% | fluid 44.5687 | solid 6.3562
  Impulse FP iterations last/mean/max 30/29.79/30
Step   900/2000   45.0% | t 45.000 | ETA 6m 58s | step 0.35s | KE 51.3077 | drift +10.80% | fluid 44.9875 | solid 6.3202
  Impulse FP iterations last/mean/max 30/29.79/30
Step  1000/2000   50.0% | t 50.000 | ETA 6m 21s | step 0.42s | KE 51.9604 | drift +12.21% | fluid 43.8242 | solid 8.1362
  Impulse FP iterations last/mean/max 30/29.79/30
Step  1100/2000   55.0% | t 55.000 | ETA 5m 43s | step 0.37s | KE 51.2862 | drift +10.76% | fluid 45.8305 | solid 5.4556
  Impulse FP iterations last/mean/max 30/29.79/30
Step  1200/2000   60.0% | t 60.000 | ETA 5m 4s | step 0.40s | KE 51.3996 | drift +11.00% | fluid 47.0428 | solid 4.3569
  Impulse FP iterations last/mean/max 30/29.80/30
Step  1300/2000   65.0% | t 65.000 | ETA 4m 26s | step 0.42s | KE 51.2431 | drift +10.67% | fluid 44.5733 | solid 6.6699
  Impulse FP iterations last/mean/max 30/29.79/30
Step  1400/2000   70.0% | t 70.000 | ETA 3m 49s | step 0.40s | KE 51.1283 | drift +10.42% | fluid 45.5063 | solid 5.6220
  Impulse FP iterations last/mean/max 30/29.80/30
Step  1500/2000   75.0% | t 75.000 | ETA 3m 10s | step 0.36s | KE 51.2942 | drift +10.78% | fluid 46.9018 | solid 4.3924
  Impulse FP iterations last/mean/max 30/29.80/30
Step  1600/2000   80.0% | t 80.000 | ETA 2m 32s | step 0.36s | KE 51.1128 | drift +10.38% | fluid 45.8671 | solid 5.2457
  Impulse FP iterations last/mean/max 30/29.80/30
Step  1700/2000   85.0% | t 85.000 | ETA 1m 54s | step 0.38s | KE 51.1381 | drift +10.44% | fluid 45.3656 | solid 5.7725
  Impulse FP iterations last/mean/max 29/29.80/30
Step  1800/2000   90.0% | t 90.000 | ETA 1m 16s | step 0.34s | KE 50.7656 | drift +9.63% | fluid 46.1361 | solid 4.6294
  Impulse FP iterations last/mean/max 30/29.80/30
Step  1900/2000   95.0% | t 95.000 | ETA 37s | step 0.37s | KE 50.4595 | drift +8.97% | fluid 44.9363 | solid 5.5232
  Impulse FP iterations last/mean/max 30/29.80/30
Solver finished successfully - good job!
Results saved successfully.

================== Run summary ==================
  Bodies:            2
  Triangles / nodes: 256 / 516
  Timesteps:         2000  (dt = 0.05)
  Simulated time:    0 -> 100
  First-step setup:  0.563 s
  Mean time/step:    0.3768 s  (excl. first step)
  Total wall time:   12m 33s
  Impulse FP iters last/mean/max: 29 / 29.805 / 30
  Approx impulse solves/step:     29.805
  Impulse start cache hits/direct: 1999 / 1
  Impulse global drift P/H:       6.328784e-6 / 4.008958e-2
  Impulse per-body max drift P/H: 7.126754e-6 / 1.419202e-2
  CPU cores:         256 available, 8 Rayon worker thread(s)
  Started:           2026-06-24 02:36:26
  Finished:          2026-06-24 02:49:00
  Output file:       /work/e643/e643/shared/multi_ellip/studies/two_body_paper_sweeps/runs/ellipsoid_1_0p8_0p6/ellipsoid_1_0p8_0p6_rho0p03_E1p5_sep3_run05_impulse_noproj/multiple_body_complete.dat
================================================
