
================ Simulation setup ================
  Run label:         /work/e643/e643/shared/multi_ellip/studies/two_body_paper_sweeps/runs/ellipsoid_1_0p8_0p6/ellipsoid_1_0p8_0p6_rho4_E30_sep11_run04_impulse_noproj/
  Started:           2026-06-24 01:33:27
  Input file:        /work/e643/e643/shared/multi_ellip/studies/two_body_paper_sweeps/runs/ellipsoid_1_0p8_0p6/ellipsoid_1_0p8_0p6_rho4_E30_sep11_run04_impulse_noproj/input.txt
  Output file:       /work/e643/e643/shared/multi_ellip/studies/two_body_paper_sweeps/runs/ellipsoid_1_0p8_0p6/ellipsoid_1_0p8_0p6_rho4_E30_sep11_run04_impulse_noproj/multiple_body_complete.dat
  Bodies:            2
  Fluid density:     1
  Mesh:              ndiv 2 -> 256 triangles / 516 nodes
  Simulated time:    0 -> 100  (dt = 0.05, ~2000 steps)
  Output cadence:    every 1 step(s)
  Output rows:       ~2001
  Progress cadence:  every 100 step(s)
  CPU cores:         256 available, 8 Rayon worker thread(s)
  Strong coupling:   disabled
  Impulse scheme:    enabled
  Hamiltonian step:  disabled
  Hamiltonian midpt: disabled
  Variational step:  disabled
  Energy projection: disabled
  Projection particular metric: Euclidean
  Fluid KE gradient: disabled  (eps = 0.001, scale = 1, linear = 1, angular = 1)
  Fluid KE discrete gradient: disabled
  Impulse pair metric correction: disabled  (mode = pair discrete-gradient, cutoff = all pairs, inner/outer = 0/0, eps = 0.001, linear scale = 1, angular scale = 0)
  Impulse metric correction: disabled  (internal load constraint = disabled)
  Impulse variational defect probe: disabled
  Impulse quadratic pressure: disabled  (scale = 1)
  Added-mass stab:   disabled
  Exact BEM geometry: disabled
  Exact singular BEM: disabled
  Legacy singular SLP diagnostic: disabled
  Phi-dot blend:     0 (off)

  Solver guidance:
    - Strong coupling: use for stiff close-coupled runs; slower but more implicit.
    - Impulse scheme: use when impulse/momentum conservation or KE drift is the focus. Recommended.
    - Added-mass stab: use for higher mesh counts (ndiv > 3) to preserve stability - deprecated.
================================================
Solver starting - good luck!

Initial state:
  Body  1
    density:          4.000000
    shape axes ratio: (1.000000, 0.800000, 0.600000)
    initial KE ratio: 30.000000
    position:         (-5.500000, 0.000000, 0.000000)
    velocity:         (0.673789, -0.206592, -0.146782)
    angular velocity: (4.689847, 3.281061, -2.591986)
    orientation:      (w=0.080042, i=-0.493863, j=0.155593, k=0.851753)
  Body  2
    density:          4.000000
    shape axes ratio: (1.000000, 0.800000, 0.600000)
    initial KE ratio: 30.000000
    position:         (5.500000, 0.000000, 0.000000)
    velocity:         (0.740755, -0.227125, -0.161371)
    angular velocity: (2.409327, 3.501376, 4.627518)
    orientation:      (w=-0.074722, i=0.703950, j=-0.586849, k=0.393038)

Preparing first step: implicit scheme, no bootstrap passes required.
First step may take longer than later steps.

First step completed in 0.270 s.

Step   100/2000    5.0% | t 5.000 | ETA 3m 49s | step 0.13s | KE 331.9856 | drift +0.00% | fluid 9.4457 | solid 322.5399
  Impulse FP iterations last/mean/max 9/8.84/9
Step   200/2000   10.0% | t 10.000 | ETA 3m 42s | step 0.12s | KE 331.9544 | drift -0.01% | fluid 9.5935 | solid 322.3609
  Impulse FP iterations last/mean/max 9/8.88/9
Step   300/2000   15.0% | t 15.000 | ETA 3m 30s | step 0.13s | KE 331.9557 | drift -0.01% | fluid 10.1390 | solid 321.8167
  Impulse FP iterations last/mean/max 9/8.83/9
Step   400/2000   20.0% | t 20.000 | ETA 3m 18s | step 0.12s | KE 331.9486 | drift -0.01% | fluid 6.5666 | solid 325.3820
  Impulse FP iterations last/mean/max 9/8.84/9
Step   500/2000   25.0% | t 25.000 | ETA 3m 6s | step 0.13s | KE 331.9452 | drift -0.01% | fluid 5.4485 | solid 326.4967
  Impulse FP iterations last/mean/max 9/8.84/9
Step   600/2000   30.0% | t 30.000 | ETA 2m 52s | step 0.11s | KE 331.9333 | drift -0.01% | fluid 8.6798 | solid 323.2535
  Impulse FP iterations last/mean/max 9/8.85/9
Step   700/2000   35.0% | t 35.000 | ETA 2m 37s | step 0.10s | KE 331.9311 | drift -0.01% | fluid 8.4759 | solid 323.4552
  Impulse FP iterations last/mean/max 8/8.83/9
Step   800/2000   40.0% | t 40.000 | ETA 2m 24s | step 0.12s | KE 331.9196 | drift -0.02% | fluid 9.0754 | solid 322.8443
  Impulse FP iterations last/mean/max 9/8.84/9
Step   900/2000   45.0% | t 45.000 | ETA 2m 12s | step 0.12s | KE 331.9183 | drift -0.02% | fluid 11.5846 | solid 320.3337
  Impulse FP iterations last/mean/max 9/8.85/9
Step  1000/2000   50.0% | t 50.000 | ETA 2m 0s | step 0.12s | KE 331.9147 | drift -0.02% | fluid 9.8084 | solid 322.1063
  Impulse FP iterations last/mean/max 9/8.85/9
Step  1100/2000   55.0% | t 55.000 | ETA 1m 49s | step 0.13s | KE 331.9225 | drift -0.02% | fluid 7.6312 | solid 324.2912
  Impulse FP iterations last/mean/max 9/8.84/9
Step  1200/2000   60.0% | t 60.000 | ETA 1m 37s | step 0.13s | KE 331.9168 | drift -0.02% | fluid 8.4477 | solid 323.4691
  Impulse FP iterations last/mean/max 9/8.84/9
Step  1300/2000   65.0% | t 65.000 | ETA 1m 25s | step 0.11s | KE 331.9215 | drift -0.02% | fluid 6.0786 | solid 325.8429
  Impulse FP iterations last/mean/max 8/8.85/9
Step  1400/2000   70.0% | t 70.000 | ETA 1m 13s | step 0.12s | KE 331.9279 | drift -0.01% | fluid 5.3356 | solid 326.5923
  Impulse FP iterations last/mean/max 8/8.84/9
Step  1500/2000   75.0% | t 75.000 | ETA 1m 1s | step 0.13s | KE 331.9029 | drift -0.02% | fluid 9.9605 | solid 321.9424
  Impulse FP iterations last/mean/max 9/8.84/9
Step  1600/2000   80.0% | t 80.000 | ETA 49s | step 0.13s | KE 331.9178 | drift -0.02% | fluid 9.7520 | solid 322.1658
  Impulse FP iterations last/mean/max 9/8.84/9
Step  1700/2000   85.0% | t 85.000 | ETA 36s | step 0.12s | KE 331.9030 | drift -0.02% | fluid 8.8594 | solid 323.0436
  Impulse FP iterations last/mean/max 9/8.84/9
Step  1800/2000   90.0% | t 90.000 | ETA 24s | step 0.13s | KE 331.9135 | drift -0.02% | fluid 10.9593 | solid 320.9542
  Impulse FP iterations last/mean/max 9/8.84/9
Step  1900/2000   95.0% | t 95.000 | ETA 12s | step 0.13s | KE 331.9056 | drift -0.02% | fluid 9.5887 | solid 322.3169
  Impulse FP iterations last/mean/max 9/8.84/9
Solver finished successfully - good job!
Results saved successfully.

================== Run summary ==================
  Bodies:            2
  Triangles / nodes: 256 / 516
  Timesteps:         2000  (dt = 0.05)
  Simulated time:    0 -> 100
  First-step setup:  0.270 s
  Mean time/step:    0.1230 s  (excl. first step)
  Total wall time:   4m 6s
  Impulse FP iters last/mean/max: 9 / 8.838 / 9
  Approx impulse solves/step:     8.838
  Impulse start cache hits/direct: 1999 / 1
  Impulse global drift P/H:       5.213114e-9 / 4.546482e-3
  Impulse per-body max drift P/H: 8.724233e-9 / 8.335061e-3
  CPU cores:         256 available, 8 Rayon worker thread(s)
  Started:           2026-06-24 01:33:27
  Finished:          2026-06-24 01:37:33
  Output file:       /work/e643/e643/shared/multi_ellip/studies/two_body_paper_sweeps/runs/ellipsoid_1_0p8_0p6/ellipsoid_1_0p8_0p6_rho4_E30_sep11_run04_impulse_noproj/multiple_body_complete.dat
================================================
