
================ Simulation setup ================
  Run label:         /work/e643/e643/shared/multi_ellip/studies/two_body_paper_sweeps/runs/spheroid_1_0p7_0p7/spheroid_1_0p7_0p7_rho0p03_E0p2_sep8_run04_impulse_noproj/
  Started:           2026-06-24 02:15:05
  Input file:        /work/e643/e643/shared/multi_ellip/studies/two_body_paper_sweeps/runs/spheroid_1_0p7_0p7/spheroid_1_0p7_0p7_rho0p03_E0p2_sep8_run04_impulse_noproj/input.txt
  Output file:       /work/e643/e643/shared/multi_ellip/studies/two_body_paper_sweeps/runs/spheroid_1_0p7_0p7/spheroid_1_0p7_0p7_rho0p03_E0p2_sep8_run04_impulse_noproj/multiple_body_complete.dat
  Bodies:            2
  Fluid density:     1
  Mesh:              ndiv 2 -> 256 triangles / 516 nodes
  Simulated time:    0 -> 100  (dt = 0.05, ~2000 steps)
  Output cadence:    every 1 step(s)
  Output rows:       ~2001
  Progress cadence:  every 100 step(s)
  CPU cores:         256 available, 8 Rayon worker thread(s)
  Strong coupling:   disabled
  Impulse scheme:    enabled
  Hamiltonian step:  disabled
  Hamiltonian midpt: disabled
  Variational step:  disabled
  Energy projection: disabled
  Projection particular metric: Euclidean
  Fluid KE gradient: disabled  (eps = 0.001, scale = 1, linear = 1, angular = 1)
  Fluid KE discrete gradient: disabled
  Impulse pair metric correction: disabled  (mode = pair discrete-gradient, cutoff = all pairs, inner/outer = 0/0, eps = 0.001, linear scale = 1, angular scale = 0)
  Impulse metric correction: disabled  (internal load constraint = disabled)
  Impulse variational defect probe: disabled
  Impulse quadratic pressure: disabled  (scale = 1)
  Added-mass stab:   disabled
  Exact BEM geometry: disabled
  Exact singular BEM: disabled
  Legacy singular SLP diagnostic: disabled
  Phi-dot blend:     0 (off)

  Solver guidance:
    - Strong coupling: use for stiff close-coupled runs; slower but more implicit.
    - Impulse scheme: use when impulse/momentum conservation or KE drift is the focus. Recommended.
    - Added-mass stab: use for higher mesh counts (ndiv > 3) to preserve stability - deprecated.
================================================
Solver starting - good luck!

Initial state:
  Body  1
    density:          0.030000
    shape axes ratio: (1.000000, 0.700000, 0.700000)
    initial KE ratio: 0.200000
    position:         (-4.000000, 0.000000, 0.000000)
    velocity:         (8.264656, -0.997525, -4.636690)
    angular velocity: (2.164146, 1.159741, -5.783588)
    orientation:      (w=0.005936, i=0.673095, j=-0.525738, k=-0.520103)
  Body  2
    density:          0.030000
    shape axes ratio: (1.000000, 0.700000, 0.700000)
    initial KE ratio: 0.200000
    position:         (4.000000, 0.000000, 0.000000)
    velocity:         (8.175243, -0.986733, -4.586527)
    angular velocity: (-2.657983, 1.821519, 5.394035)
    orientation:      (w=-0.197070, i=0.314597, j=0.889162, k=-0.267551)

Preparing first step: implicit scheme, no bootstrap passes required.
First step may take longer than later steps.

First step completed in 0.497 s.

Step   100/2000    5.0% | t 5.000 | ETA 9m 8s | step 0.27s | KE 222.9816 | drift -0.81% | fluid 209.2005 | solid 13.7811
  Impulse FP iterations last/mean/max 21/21.67/25
Step   200/2000   10.0% | t 10.000 | ETA 8m 18s | step 0.26s | KE 224.7549 | drift -0.02% | fluid 209.7954 | solid 14.9595
  Impulse FP iterations last/mean/max 20/21.15/25
Step   300/2000   15.0% | t 15.000 | ETA 7m 39s | step 0.24s | KE 224.7188 | drift -0.04% | fluid 209.4515 | solid 15.2673
  Impulse FP iterations last/mean/max 19/21.02/25
Step   400/2000   20.0% | t 20.000 | ETA 7m 3s | step 0.25s | KE 223.1152 | drift -0.75% | fluid 206.5577 | solid 16.5574
  Impulse FP iterations last/mean/max 21/21.00/25
Step   500/2000   25.0% | t 25.000 | ETA 6m 34s | step 0.27s | KE 223.2188 | drift -0.70% | fluid 207.5799 | solid 15.6389
  Impulse FP iterations last/mean/max 22/20.98/25
Step   600/2000   30.0% | t 30.000 | ETA 6m 7s | step 0.28s | KE 223.4698 | drift -0.59% | fluid 210.6318 | solid 12.8380
  Impulse FP iterations last/mean/max 24/20.96/25
Step   700/2000   35.0% | t 35.000 | ETA 5m 42s | step 0.26s | KE 224.2190 | drift -0.26% | fluid 209.8527 | solid 14.3663
  Impulse FP iterations last/mean/max 20/20.93/25
Step   800/2000   40.0% | t 40.000 | ETA 5m 15s | step 0.26s | KE 223.5193 | drift -0.57% | fluid 207.6702 | solid 15.8491
  Impulse FP iterations last/mean/max 20/20.93/25
Step   900/2000   45.0% | t 45.000 | ETA 4m 48s | step 0.28s | KE 223.6579 | drift -0.51% | fluid 207.0944 | solid 16.5635
  Impulse FP iterations last/mean/max 22/20.91/25
Step  1000/2000   50.0% | t 50.000 | ETA 4m 22s | step 0.26s | KE 224.4214 | drift -0.17% | fluid 208.7410 | solid 15.6804
  Impulse FP iterations last/mean/max 20/20.92/25
Step  1100/2000   55.0% | t 55.000 | ETA 3m 55s | step 0.23s | KE 223.5862 | drift -0.54% | fluid 210.2340 | solid 13.3522
  Impulse FP iterations last/mean/max 20/20.92/25
Step  1200/2000   60.0% | t 60.000 | ETA 3m 28s | step 0.23s | KE 223.8600 | drift -0.42% | fluid 209.8243 | solid 14.0357
  Impulse FP iterations last/mean/max 20/20.91/25
Step  1300/2000   65.0% | t 65.000 | ETA 3m 1s | step 0.25s | KE 222.4041 | drift -1.07% | fluid 206.6278 | solid 15.7762
  Impulse FP iterations last/mean/max 21/20.89/25
Step  1400/2000   70.0% | t 70.000 | ETA 2m 35s | step 0.22s | KE 223.5232 | drift -0.57% | fluid 207.4449 | solid 16.0783
  Impulse FP iterations last/mean/max 21/20.89/25
Step  1500/2000   75.0% | t 75.000 | ETA 2m 7s | step 0.23s | KE 225.5233 | drift +0.32% | fluid 210.1789 | solid 15.3445
  Impulse FP iterations last/mean/max 24/20.87/25
Step  1600/2000   80.0% | t 80.000 | ETA 1m 40s | step 0.19s | KE 223.9938 | drift -0.36% | fluid 209.8615 | solid 14.1324
  Impulse FP iterations last/mean/max 21/20.86/25
Step  1700/2000   85.0% | t 85.000 | ETA 1m 14s | step 0.20s | KE 223.4250 | drift -0.61% | fluid 208.3103 | solid 15.1148
  Impulse FP iterations last/mean/max 20/20.85/25
Step  1800/2000   90.0% | t 90.000 | ETA 49s | step 0.19s | KE 222.1319 | drift -1.19% | fluid 207.0157 | solid 15.1163
  Impulse FP iterations last/mean/max 20/20.85/25
Step  1900/2000   95.0% | t 95.000 | ETA 24s | step 0.21s | KE 223.3032 | drift -0.67% | fluid 208.2918 | solid 15.0114
  Impulse FP iterations last/mean/max 23/20.85/25
Solver finished successfully - good job!
Results saved successfully.

================== Run summary ==================
  Bodies:            2
  Triangles / nodes: 256 / 516
  Timesteps:         2000  (dt = 0.05)
  Simulated time:    0 -> 100
  First-step setup:  0.497 s
  Mean time/step:    0.2403 s  (excl. first step)
  Total wall time:   8m 0s
  Impulse FP iters last/mean/max: 21 / 20.855 / 25
  Approx impulse solves/step:     20.856
  Impulse start cache hits/direct: 1999 / 1
  Impulse global drift P/H:       3.313352e-8 / 5.945257e-2
  Impulse per-body max drift P/H: 8.802101e-8 / 1.157415e-2
  CPU cores:         256 available, 8 Rayon worker thread(s)
  Started:           2026-06-24 02:15:05
  Finished:          2026-06-24 02:23:06
  Output file:       /work/e643/e643/shared/multi_ellip/studies/two_body_paper_sweeps/runs/spheroid_1_0p7_0p7/spheroid_1_0p7_0p7_rho0p03_E0p2_sep8_run04_impulse_noproj/multiple_body_complete.dat
================================================
