
================ Simulation setup ================
  Run label:         /work/e643/e643/shared/multi_ellip/studies/departing_sphericity_sweep/runs/spheroid_prolate/homogeneous/spheroid_prolate_homogeneous_eps0p001_rho1_E0p5_sep8_run08_impulse_noproj/
  Started:           2026-06-24 02:26:38
  Input file:        /work/e643/e643/shared/multi_ellip/studies/departing_sphericity_sweep/runs/spheroid_prolate/homogeneous/spheroid_prolate_homogeneous_eps0p001_rho1_E0p5_sep8_run08_impulse_noproj/input.txt
  Output file:       /work/e643/e643/shared/multi_ellip/studies/departing_sphericity_sweep/runs/spheroid_prolate/homogeneous/spheroid_prolate_homogeneous_eps0p001_rho1_E0p5_sep8_run08_impulse_noproj/multiple_body_complete.dat
  Bodies:            2
  Fluid density:     1
  Mesh:              ndiv 2 -> 256 triangles / 516 nodes
  Simulated time:    0 -> 100  (dt = 0.05, ~2000 steps)
  Output cadence:    every 1 step(s)
  Output rows:       ~2001
  Progress cadence:  every 100 step(s)
  CPU cores:         256 available, 8 Rayon worker thread(s)
  Strong coupling:   disabled
  Impulse scheme:    enabled
  Hamiltonian step:  disabled
  Hamiltonian midpt: disabled
  Variational step:  disabled
  Energy projection: disabled
  Projection particular metric: Euclidean
  Fluid KE gradient: disabled  (eps = 0.001, scale = 1, linear = 1, angular = 1)
  Fluid KE discrete gradient: disabled
  Impulse pair metric correction: disabled  (mode = pair discrete-gradient, cutoff = all pairs, inner/outer = 0/0, eps = 0.001, linear scale = 1, angular scale = 0)
  Impulse metric correction: disabled  (internal load constraint = disabled)
  Impulse variational defect probe: disabled
  Impulse quadratic pressure: disabled  (scale = 1)
  Added-mass stab:   disabled
  Exact BEM geometry: disabled
  Exact singular BEM: disabled
  Legacy singular SLP diagnostic: disabled
  Phi-dot blend:     0 (off)

  Solver guidance:
    - Strong coupling: use for stiff close-coupled runs; slower but more implicit.
    - Impulse scheme: use when impulse/momentum conservation or KE drift is the focus. Recommended.
    - Added-mass stab: use for higher mesh counts (ndiv > 3) to preserve stability - deprecated.
================================================
Solver starting - good luck!

Initial state:
  Body  1
    density:          1.000000
    shape axes ratio: (1.000000, 0.997006, 0.997006)
    initial KE ratio: 0.500000
    position:         (-4.000000, 0.000000, 0.000000)
    velocity:         (-0.571543, 2.480489, 5.013459)
    angular velocity: (0.284827, -4.249617, -4.619312)
    orientation:      (w=0.286984, i=0.041583, j=0.722628, k=0.627471)
  Body  2
    density:          1.000000
    shape axes ratio: (1.000000, 0.997006, 0.997006)
    initial KE ratio: 0.500000
    position:         (4.000000, 0.000000, 0.000000)
    velocity:         (-0.571543, 2.480489, 5.013459)
    angular velocity: (-0.292806, 5.771412, -2.466473)
    orientation:      (w=0.490090, i=-0.020903, j=0.265735, k=-0.829916)

Preparing first step: implicit scheme, no bootstrap passes required.
First step may take longer than later steps.

First step completed in 0.253 s.

Step   100/2000    5.0% | t 5.000 | ETA 3m 5s | step 0.10s | KE 269.9101 | drift -0.53% | fluid 72.7401 | solid 197.1700
  Impulse FP iterations last/mean/max 7/7.18/8
Step   200/2000   10.0% | t 10.000 | ETA 2m 58s | step 0.10s | KE 268.5920 | drift -1.02% | fluid 72.7606 | solid 195.8315
  Impulse FP iterations last/mean/max 7/7.16/8
Step   300/2000   15.0% | t 15.000 | ETA 2m 48s | step 0.10s | KE 267.4048 | drift -1.46% | fluid 72.7457 | solid 194.6591
  Impulse FP iterations last/mean/max 7/7.15/8
Step   400/2000   20.0% | t 20.000 | ETA 2m 38s | step 0.09s | KE 266.3375 | drift -1.85% | fluid 72.7566 | solid 193.5808
  Impulse FP iterations last/mean/max 7/7.17/8
Step   500/2000   25.0% | t 25.000 | ETA 2m 29s | step 0.10s | KE 265.3946 | drift -2.20% | fluid 72.7442 | solid 192.6504
  Impulse FP iterations last/mean/max 7/7.16/8
Step   600/2000   30.0% | t 30.000 | ETA 2m 19s | step 0.09s | KE 264.5669 | drift -2.50% | fluid 72.7707 | solid 191.7963
  Impulse FP iterations last/mean/max 6/7.16/8
Step   700/2000   35.0% | t 35.000 | ETA 2m 9s | step 0.09s | KE 263.8586 | drift -2.76% | fluid 72.7670 | solid 191.0917
  Impulse FP iterations last/mean/max 7/7.15/8
Step   800/2000   40.0% | t 40.000 | ETA 1m 59s | step 0.12s | KE 263.2683 | drift -2.98% | fluid 72.7390 | solid 190.5293
  Impulse FP iterations last/mean/max 8/7.17/8
Step   900/2000   45.0% | t 45.000 | ETA 1m 50s | step 0.10s | KE 262.7920 | drift -3.16% | fluid 72.7494 | solid 190.0427
  Impulse FP iterations last/mean/max 7/7.17/8
Step  1000/2000   50.0% | t 50.000 | ETA 1m 40s | step 0.09s | KE 262.4342 | drift -3.29% | fluid 72.7288 | solid 189.7054
  Impulse FP iterations last/mean/max 7/7.17/8
Step  1100/2000   55.0% | t 55.000 | ETA 1m 30s | step 0.10s | KE 262.1901 | drift -3.38% | fluid 72.7639 | solid 189.4262
  Impulse FP iterations last/mean/max 7/7.17/8
Step  1200/2000   60.0% | t 60.000 | ETA 1m 20s | step 0.09s | KE 262.0691 | drift -3.42% | fluid 72.7567 | solid 189.3124
  Impulse FP iterations last/mean/max 7/7.18/8
Step  1300/2000   65.0% | t 65.000 | ETA 1m 10s | step 0.10s | KE 262.0676 | drift -3.42% | fluid 72.7679 | solid 189.2997
  Impulse FP iterations last/mean/max 7/7.18/8
Step  1400/2000   70.0% | t 70.000 | ETA 1m 0s | step 0.10s | KE 262.1947 | drift -3.38% | fluid 72.7467 | solid 189.4480
  Impulse FP iterations last/mean/max 7/7.19/8
Step  1500/2000   75.0% | t 75.000 | ETA 50s | step 0.10s | KE 262.4548 | drift -3.28% | fluid 72.7460 | solid 189.7088
  Impulse FP iterations last/mean/max 7/7.20/8
Step  1600/2000   80.0% | t 80.000 | ETA 40s | step 0.10s | KE 262.8520 | drift -3.13% | fluid 72.7519 | solid 190.1001
  Impulse FP iterations last/mean/max 7/7.20/8
Step  1700/2000   85.0% | t 85.000 | ETA 30s | step 0.12s | KE 263.3876 | drift -2.94% | fluid 72.7504 | solid 190.6371
  Impulse FP iterations last/mean/max 8/7.21/8
Step  1800/2000   90.0% | t 90.000 | ETA 20s | step 0.11s | KE 264.0803 | drift -2.68% | fluid 72.7580 | solid 191.3223
  Impulse FP iterations last/mean/max 8/7.21/8
Step  1900/2000   95.0% | t 95.000 | ETA 10s | step 0.10s | KE 264.9364 | drift -2.37% | fluid 72.7466 | solid 192.1898
  Impulse FP iterations last/mean/max 7/7.21/8
Solver finished successfully - good job!
Results saved successfully.

================== Run summary ==================
  Bodies:            2
  Triangles / nodes: 256 / 516
  Timesteps:         2000  (dt = 0.05)
  Simulated time:    0 -> 100
  First-step setup:  0.253 s
  Mean time/step:    0.1007 s  (excl. first step)
  Total wall time:   3m 21s
  Impulse FP iters last/mean/max: 8 / 7.220 / 8
  Approx impulse solves/step:     7.220
  Impulse start cache hits/direct: 1999 / 1
  Impulse global drift P/H:       1.014604e-8 / 9.204108e-3
  Impulse per-body max drift P/H: 2.742996e-8 / 8.158726e-4
  CPU cores:         256 available, 8 Rayon worker thread(s)
  Started:           2026-06-24 02:26:38
  Finished:          2026-06-24 02:30:00
  Output file:       /work/e643/e643/shared/multi_ellip/studies/departing_sphericity_sweep/runs/spheroid_prolate/homogeneous/spheroid_prolate_homogeneous_eps0p001_rho1_E0p5_sep8_run08_impulse_noproj/multiple_body_complete.dat
================================================
