
================ Simulation setup ================
  Run label:         /work/e643/e643/shared/multi_ellip/studies/two_body_paper_sweeps/runs/spheroid_1_0p7_0p7/spheroid_1_0p7_0p7_rho10_E4_sep3_run03_impulse_noproj/
  Started:           2026-06-24 01:18:35
  Input file:        /work/e643/e643/shared/multi_ellip/studies/two_body_paper_sweeps/runs/spheroid_1_0p7_0p7/spheroid_1_0p7_0p7_rho10_E4_sep3_run03_impulse_noproj/input.txt
  Output file:       /work/e643/e643/shared/multi_ellip/studies/two_body_paper_sweeps/runs/spheroid_1_0p7_0p7/spheroid_1_0p7_0p7_rho10_E4_sep3_run03_impulse_noproj/multiple_body_complete.dat
  Bodies:            2
  Fluid density:     1
  Mesh:              ndiv 2 -> 256 triangles / 516 nodes
  Simulated time:    0 -> 100  (dt = 0.05, ~2000 steps)
  Output cadence:    every 1 step(s)
  Output rows:       ~2001
  Progress cadence:  every 100 step(s)
  CPU cores:         256 available, 8 Rayon worker thread(s)
  Strong coupling:   disabled
  Impulse scheme:    enabled
  Hamiltonian step:  disabled
  Hamiltonian midpt: disabled
  Variational step:  disabled
  Energy projection: disabled
  Projection particular metric: Euclidean
  Fluid KE gradient: disabled  (eps = 0.001, scale = 1, linear = 1, angular = 1)
  Fluid KE discrete gradient: disabled
  Impulse pair metric correction: disabled  (mode = pair discrete-gradient, cutoff = all pairs, inner/outer = 0/0, eps = 0.001, linear scale = 1, angular scale = 0)
  Impulse metric correction: disabled  (internal load constraint = disabled)
  Impulse variational defect probe: disabled
  Impulse quadratic pressure: disabled  (scale = 1)
  Added-mass stab:   disabled
  Exact BEM geometry: disabled
  Exact singular BEM: disabled
  Legacy singular SLP diagnostic: disabled
  Phi-dot blend:     0 (off)

  Solver guidance:
    - Strong coupling: use for stiff close-coupled runs; slower but more implicit.
    - Impulse scheme: use when impulse/momentum conservation or KE drift is the focus. Recommended.
    - Added-mass stab: use for higher mesh counts (ndiv > 3) to preserve stability - deprecated.
================================================
Solver starting - good luck!

Initial state:
  Body  1
    density:          10.000000
    shape axes ratio: (1.000000, 0.700000, 0.700000)
    initial KE ratio: 4.000000
    position:         (-1.500000, 0.000000, 0.000000)
    velocity:         (-0.905764, 0.101856, -1.596629)
    angular velocity: (5.740660, 0.682652, -2.461144)
    orientation:      (w=-0.234957, i=-0.156165, j=-0.803067, k=0.524872)
  Body  2
    density:          10.000000
    shape axes ratio: (1.000000, 0.700000, 0.700000)
    initial KE ratio: 4.000000
    position:         (1.500000, 0.000000, 0.000000)
    velocity:         (-0.976322, 0.109790, -1.721004)
    angular velocity: (-4.429459, 3.129222, 3.172740)
    orientation:      (w=0.689752, i=-0.486869, j=0.433059, k=0.315690)

Preparing first step: implicit scheme, no bootstrap passes required.
First step may take longer than later steps.

First step completed in 0.215 s.

Step   100/2000    5.0% | t 5.000 | ETA 2m 51s | step 0.10s | KE 852.5280 | drift +1.59% | fluid 11.5354 | solid 840.9926
  Impulse FP iterations last/mean/max 7/6.97/7
Step   200/2000   10.0% | t 10.000 | ETA 2m 54s | step 0.11s | KE 855.8745 | drift +1.99% | fluid 14.0970 | solid 841.7776
  Impulse FP iterations last/mean/max 7/7.00/9
Step   300/2000   15.0% | t 15.000 | ETA 2m 51s | step 0.10s | KE 835.0011 | drift -0.50% | fluid 11.8824 | solid 823.1187
  Impulse FP iterations last/mean/max 7/7.01/9
Step   400/2000   20.0% | t 20.000 | ETA 2m 44s | step 0.11s | KE 806.0889 | drift -3.95% | fluid 10.7783 | solid 795.3106
  Impulse FP iterations last/mean/max 7/7.07/30
Step   500/2000   25.0% | t 25.000 | ETA 2m 32s | step 0.10s | KE 798.3785 | drift -4.87% | fluid 11.2969 | solid 787.0816
  Impulse FP iterations last/mean/max 7/7.01/30
Step   600/2000   30.0% | t 30.000 | ETA 2m 17s | step 0.09s | KE 795.6155 | drift -5.19% | fluid 12.2948 | solid 783.3206
  Impulse FP iterations last/mean/max 7/6.90/30
Step   700/2000   35.0% | t 35.000 | ETA 2m 4s | step 0.07s | KE 794.4282 | drift -5.34% | fluid 12.5766 | solid 781.8516
  Impulse FP iterations last/mean/max 6/6.81/30
Step   800/2000   40.0% | t 40.000 | ETA 1m 53s | step 0.08s | KE 793.8388 | drift -5.41% | fluid 11.8693 | solid 781.9695
  Impulse FP iterations last/mean/max 6/6.73/30
Step   900/2000   45.0% | t 45.000 | ETA 1m 42s | step 0.08s | KE 793.5099 | drift -5.45% | fluid 10.9784 | solid 782.5314
  Impulse FP iterations last/mean/max 6/6.67/30
Step  1000/2000   50.0% | t 50.000 | ETA 1m 32s | step 0.09s | KE 793.2683 | drift -5.47% | fluid 11.5269 | solid 781.7414
  Impulse FP iterations last/mean/max 6/6.62/30
Step  1100/2000   55.0% | t 55.000 | ETA 1m 23s | step 0.08s | KE 793.0984 | drift -5.49% | fluid 12.1317 | solid 780.9667
  Impulse FP iterations last/mean/max 6/6.58/30
Step  1200/2000   60.0% | t 60.000 | ETA 1m 13s | step 0.09s | KE 793.0042 | drift -5.51% | fluid 11.8024 | solid 781.2018
  Impulse FP iterations last/mean/max 6/6.55/30
Step  1300/2000   65.0% | t 65.000 | ETA 1m 4s | step 0.08s | KE 792.9651 | drift -5.51% | fluid 10.4153 | solid 782.5498
  Impulse FP iterations last/mean/max 6/6.52/30
Step  1400/2000   70.0% | t 70.000 | ETA 54s | step 0.09s | KE 792.9140 | drift -5.52% | fluid 10.3842 | solid 782.5297
  Impulse FP iterations last/mean/max 6/6.50/30
Step  1500/2000   75.0% | t 75.000 | ETA 45s | step 0.08s | KE 792.8459 | drift -5.52% | fluid 11.2268 | solid 781.6190
  Impulse FP iterations last/mean/max 6/6.48/30
Step  1600/2000   80.0% | t 80.000 | ETA 36s | step 0.08s | KE 792.8023 | drift -5.53% | fluid 11.8602 | solid 780.9421
  Impulse FP iterations last/mean/max 6/6.46/30
Step  1700/2000   85.0% | t 85.000 | ETA 27s | step 0.09s | KE 792.8044 | drift -5.53% | fluid 10.8366 | solid 781.9678
  Impulse FP iterations last/mean/max 6/6.44/30
Step  1800/2000   90.0% | t 90.000 | ETA 18s | step 0.08s | KE 792.8026 | drift -5.53% | fluid 10.3522 | solid 782.4504
  Impulse FP iterations last/mean/max 6/6.43/30
Step  1900/2000   95.0% | t 95.000 | ETA 9s | step 0.08s | KE 792.7660 | drift -5.53% | fluid 10.8065 | solid 781.9595
  Impulse FP iterations last/mean/max 6/6.42/30
Solver finished successfully - good job!
Results saved successfully.

================== Run summary ==================
  Bodies:            2
  Triangles / nodes: 256 / 516
  Timesteps:         2000  (dt = 0.05)
  Simulated time:    0 -> 100
  First-step setup:  0.215 s
  Mean time/step:    0.0903 s  (excl. first step)
  Total wall time:   3m 0s
  Impulse FP iters last/mean/max: 6 / 6.405 / 30
  Approx impulse solves/step:     6.406
  Impulse start cache hits/direct: 1999 / 1
  Impulse global drift P/H:       1.571268e-2 / 5.116205e-1
  Impulse per-body max drift P/H: 4.848608e-2 / 5.565803e-1
  CPU cores:         256 available, 8 Rayon worker thread(s)
  Started:           2026-06-24 01:18:35
  Finished:          2026-06-24 01:21:36
  Output file:       /work/e643/e643/shared/multi_ellip/studies/two_body_paper_sweeps/runs/spheroid_1_0p7_0p7/spheroid_1_0p7_0p7_rho10_E4_sep3_run03_impulse_noproj/multiple_body_complete.dat
================================================
