
================ Simulation setup ================
  Run label:         /work/e643/e643/shared/multi_ellip/studies/two_body_paper_sweeps/runs/spheroid_1_0p7_0p7/spheroid_1_0p7_0p7_rho1_E30_sep3_run04_impulse_noproj/
  Started:           2026-06-24 01:39:24
  Input file:        /work/e643/e643/shared/multi_ellip/studies/two_body_paper_sweeps/runs/spheroid_1_0p7_0p7/spheroid_1_0p7_0p7_rho1_E30_sep3_run04_impulse_noproj/input.txt
  Output file:       /work/e643/e643/shared/multi_ellip/studies/two_body_paper_sweeps/runs/spheroid_1_0p7_0p7/spheroid_1_0p7_0p7_rho1_E30_sep3_run04_impulse_noproj/multiple_body_complete.dat
  Bodies:            2
  Fluid density:     1
  Mesh:              ndiv 2 -> 256 triangles / 516 nodes
  Simulated time:    0 -> 100  (dt = 0.05, ~2000 steps)
  Output cadence:    every 1 step(s)
  Output rows:       ~2001
  Progress cadence:  every 100 step(s)
  CPU cores:         256 available, 8 Rayon worker thread(s)
  Strong coupling:   disabled
  Impulse scheme:    enabled
  Hamiltonian step:  disabled
  Hamiltonian midpt: disabled
  Variational step:  disabled
  Energy projection: disabled
  Projection particular metric: Euclidean
  Fluid KE gradient: disabled  (eps = 0.001, scale = 1, linear = 1, angular = 1)
  Fluid KE discrete gradient: disabled
  Impulse pair metric correction: disabled  (mode = pair discrete-gradient, cutoff = all pairs, inner/outer = 0/0, eps = 0.001, linear scale = 1, angular scale = 0)
  Impulse metric correction: disabled  (internal load constraint = disabled)
  Impulse variational defect probe: disabled
  Impulse quadratic pressure: disabled  (scale = 1)
  Added-mass stab:   disabled
  Exact BEM geometry: disabled
  Exact singular BEM: disabled
  Legacy singular SLP diagnostic: disabled
  Phi-dot blend:     0 (off)

  Solver guidance:
    - Strong coupling: use for stiff close-coupled runs; slower but more implicit.
    - Impulse scheme: use when impulse/momentum conservation or KE drift is the focus. Recommended.
    - Added-mass stab: use for higher mesh counts (ndiv > 3) to preserve stability - deprecated.
================================================
Solver starting - good luck!

Initial state:
  Body  1
    density:          1.000000
    shape axes ratio: (1.000000, 0.700000, 0.700000)
    initial KE ratio: 30.000000
    position:         (-1.500000, 0.000000, 0.000000)
    velocity:         (0.013180, 0.323919, -0.723261)
    angular velocity: (-0.707754, 5.253167, 3.373683)
    orientation:      (w=-0.041278, i=-0.399659, j=-0.851834, k=-0.336078)
  Body  2
    density:          1.000000
    shape axes ratio: (1.000000, 0.700000, 0.700000)
    initial KE ratio: 30.000000
    position:         (1.500000, 0.000000, 0.000000)
    velocity:         (0.011174, 0.274624, -0.613192)
    angular velocity: (-5.726632, 1.344444, -2.208297)
    orientation:      (w=-0.137046, i=-0.536824, j=0.259357, k=-0.791058)

Preparing first step: implicit scheme, no bootstrap passes required.
First step may take longer than later steps.

First step completed in 0.276 s.

Step   100/2000    5.0% | t 5.000 | ETA 4m 37s | step 0.15s | KE 80.8817 | drift +1.87% | fluid 6.0226 | solid 74.8591
  Impulse FP iterations last/mean/max 10/10.29/11
Step   200/2000   10.0% | t 10.000 | ETA 4m 25s | step 0.15s | KE 83.8416 | drift +5.60% | fluid 6.0270 | solid 77.8146
  Impulse FP iterations last/mean/max 10/10.23/11
Step   300/2000   15.0% | t 15.000 | ETA 4m 9s | step 0.13s | KE 85.9398 | drift +8.24% | fluid 5.9877 | solid 79.9521
  Impulse FP iterations last/mean/max 9/10.13/11
Step   400/2000   20.0% | t 20.000 | ETA 3m 51s | step 0.13s | KE 87.1339 | drift +9.74% | fluid 6.2349 | solid 80.8990
  Impulse FP iterations last/mean/max 9/9.97/11
Step   500/2000   25.0% | t 25.000 | ETA 3m 33s | step 0.14s | KE 87.7453 | drift +10.51% | fluid 6.2278 | solid 81.5175
  Impulse FP iterations last/mean/max 9/9.82/11
Step   600/2000   30.0% | t 30.000 | ETA 3m 16s | step 0.13s | KE 88.0837 | drift +10.94% | fluid 6.1634 | solid 81.9202
  Impulse FP iterations last/mean/max 9/9.68/11
Step   700/2000   35.0% | t 35.000 | ETA 3m 0s | step 0.13s | KE 88.2723 | drift +11.18% | fluid 6.2770 | solid 81.9953
  Impulse FP iterations last/mean/max 9/9.59/11
Step   800/2000   40.0% | t 40.000 | ETA 2m 45s | step 0.14s | KE 88.3926 | drift +11.33% | fluid 6.2002 | solid 82.1924
  Impulse FP iterations last/mean/max 9/9.51/11
Step   900/2000   45.0% | t 45.000 | ETA 2m 30s | step 0.12s | KE 88.4694 | drift +11.42% | fluid 6.0675 | solid 82.4020
  Impulse FP iterations last/mean/max 9/9.46/11
Step  1000/2000   50.0% | t 50.000 | ETA 2m 16s | step 0.13s | KE 88.5034 | drift +11.47% | fluid 6.2641 | solid 82.2393
  Impulse FP iterations last/mean/max 9/9.41/11
Step  1100/2000   55.0% | t 55.000 | ETA 2m 1s | step 0.13s | KE 88.5322 | drift +11.50% | fluid 6.3100 | solid 82.2222
  Impulse FP iterations last/mean/max 9/9.37/11
Step  1200/2000   60.0% | t 60.000 | ETA 1m 47s | step 0.12s | KE 88.5639 | drift +11.54% | fluid 6.1642 | solid 82.3997
  Impulse FP iterations last/mean/max 9/9.34/11
Step  1300/2000   65.0% | t 65.000 | ETA 1m 34s | step 0.12s | KE 88.5785 | drift +11.56% | fluid 6.2610 | solid 82.3175
  Impulse FP iterations last/mean/max 9/9.31/11
Step  1400/2000   70.0% | t 70.000 | ETA 1m 20s | step 0.13s | KE 88.5902 | drift +11.58% | fluid 6.2564 | solid 82.3338
  Impulse FP iterations last/mean/max 9/9.29/11
Step  1500/2000   75.0% | t 75.000 | ETA 1m 6s | step 0.12s | KE 88.6090 | drift +11.60% | fluid 6.1193 | solid 82.4897
  Impulse FP iterations last/mean/max 9/9.27/11
Step  1600/2000   80.0% | t 80.000 | ETA 53s | step 0.13s | KE 88.6136 | drift +11.61% | fluid 6.2195 | solid 82.3941
  Impulse FP iterations last/mean/max 9/9.25/11
Step  1700/2000   85.0% | t 85.000 | ETA 39s | step 0.14s | KE 88.6081 | drift +11.60% | fluid 6.3097 | solid 82.2984
  Impulse FP iterations last/mean/max 9/9.24/11
Step  1800/2000   90.0% | t 90.000 | ETA 26s | step 0.13s | KE 88.6167 | drift +11.61% | fluid 6.2571 | solid 82.3596
  Impulse FP iterations last/mean/max 9/9.22/11
Step  1900/2000   95.0% | t 95.000 | ETA 13s | step 0.12s | KE 88.6312 | drift +11.63% | fluid 6.1955 | solid 82.4357
  Impulse FP iterations last/mean/max 9/9.21/11
Solver finished successfully - good job!
Results saved successfully.

================== Run summary ==================
  Bodies:            2
  Triangles / nodes: 256 / 516
  Timesteps:         2000  (dt = 0.05)
  Simulated time:    0 -> 100
  First-step setup:  0.276 s
  Mean time/step:    0.1312 s  (excl. first step)
  Total wall time:   4m 22s
  Impulse FP iters last/mean/max: 9 / 9.192 / 11
  Approx impulse solves/step:     9.193
  Impulse start cache hits/direct: 1999 / 1
  Impulse global drift P/H:       5.328183e-8 / 8.664293e-3
  Impulse per-body max drift P/H: 1.183395e-7 / 2.282897e-2
  CPU cores:         256 available, 8 Rayon worker thread(s)
  Started:           2026-06-24 01:39:24
  Finished:          2026-06-24 01:43:47
  Output file:       /work/e643/e643/shared/multi_ellip/studies/two_body_paper_sweeps/runs/spheroid_1_0p7_0p7/spheroid_1_0p7_0p7_rho1_E30_sep3_run04_impulse_noproj/multiple_body_complete.dat
================================================
