
================ Simulation setup ================
  Run label:         /work/e643/e643/shared/multi_ellip/studies/two_body_paper_sweeps/runs/spheroid_1_0p7_0p7/spheroid_1_0p7_0p7_rho4_E11_sep3_run03_impulse_noproj/
  Started:           2026-06-24 01:25:49
  Input file:        /work/e643/e643/shared/multi_ellip/studies/two_body_paper_sweeps/runs/spheroid_1_0p7_0p7/spheroid_1_0p7_0p7_rho4_E11_sep3_run03_impulse_noproj/input.txt
  Output file:       /work/e643/e643/shared/multi_ellip/studies/two_body_paper_sweeps/runs/spheroid_1_0p7_0p7/spheroid_1_0p7_0p7_rho4_E11_sep3_run03_impulse_noproj/multiple_body_complete.dat
  Bodies:            2
  Fluid density:     1
  Mesh:              ndiv 2 -> 256 triangles / 516 nodes
  Simulated time:    0 -> 100  (dt = 0.05, ~2000 steps)
  Output cadence:    every 1 step(s)
  Output rows:       ~2001
  Progress cadence:  every 100 step(s)
  CPU cores:         256 available, 8 Rayon worker thread(s)
  Strong coupling:   disabled
  Impulse scheme:    enabled
  Hamiltonian step:  disabled
  Hamiltonian midpt: disabled
  Variational step:  disabled
  Energy projection: disabled
  Projection particular metric: Euclidean
  Fluid KE gradient: disabled  (eps = 0.001, scale = 1, linear = 1, angular = 1)
  Fluid KE discrete gradient: disabled
  Impulse pair metric correction: disabled  (mode = pair discrete-gradient, cutoff = all pairs, inner/outer = 0/0, eps = 0.001, linear scale = 1, angular scale = 0)
  Impulse metric correction: disabled  (internal load constraint = disabled)
  Impulse variational defect probe: disabled
  Impulse quadratic pressure: disabled  (scale = 1)
  Added-mass stab:   disabled
  Exact BEM geometry: disabled
  Exact singular BEM: disabled
  Legacy singular SLP diagnostic: disabled
  Phi-dot blend:     0 (off)

  Solver guidance:
    - Strong coupling: use for stiff close-coupled runs; slower but more implicit.
    - Impulse scheme: use when impulse/momentum conservation or KE drift is the focus. Recommended.
    - Added-mass stab: use for higher mesh counts (ndiv > 3) to preserve stability - deprecated.
================================================
Solver starting - good luck!

Initial state:
  Body  1
    density:          4.000000
    shape axes ratio: (1.000000, 0.700000, 0.700000)
    initial KE ratio: 11.000000
    position:         (-1.500000, 0.000000, 0.000000)
    velocity:         (0.188109, -0.503497, 1.175790)
    angular velocity: (-1.819298, -3.660159, 4.771982)
    orientation:      (w=-0.801035, i=0.139272, j=-0.547825, k=0.197064)
  Body  2
    density:          4.000000
    shape axes ratio: (1.000000, 0.700000, 0.700000)
    initial KE ratio: 11.000000
    position:         (1.500000, 0.000000, 0.000000)
    velocity:         (0.183269, -0.490541, 1.145534)
    angular velocity: (3.000214, 0.245374, -5.515154)
    orientation:      (w=0.399144, i=-0.857398, j=-0.233223, k=0.226184)

Preparing first step: implicit scheme, no bootstrap passes required.
First step may take longer than later steps.

First step completed in 0.322 s.

Step   100/2000    5.0% | t 5.000 | ETA 3m 42s | step 0.12s | KE 322.0483 | drift -0.85% | fluid 9.0197 | solid 313.0285
  Impulse FP iterations last/mean/max 8/8.08/9
Step   200/2000   10.0% | t 10.000 | ETA 3m 30s | step 0.11s | KE 320.3303 | drift -1.38% | fluid 9.0785 | solid 311.2518
  Impulse FP iterations last/mean/max 8/8.10/9
Step   300/2000   15.0% | t 15.000 | ETA 3m 20s | step 0.12s | KE 318.3713 | drift -1.98% | fluid 9.3878 | solid 308.9835
  Impulse FP iterations last/mean/max 8/8.11/9
Step   400/2000   20.0% | t 20.000 | ETA 3m 8s | step 0.11s | KE 317.5598 | drift -2.23% | fluid 8.6740 | solid 308.8858
  Impulse FP iterations last/mean/max 8/8.10/9
Step   500/2000   25.0% | t 25.000 | ETA 2m 57s | step 0.12s | KE 317.1605 | drift -2.35% | fluid 9.6077 | solid 307.5528
  Impulse FP iterations last/mean/max 8/8.12/9
Step   600/2000   30.0% | t 30.000 | ETA 2m 45s | step 0.13s | KE 318.1086 | drift -2.06% | fluid 8.5114 | solid 309.5972
  Impulse FP iterations last/mean/max 9/8.12/9
Step   700/2000   35.0% | t 35.000 | ETA 2m 34s | step 0.12s | KE 318.7856 | drift -1.85% | fluid 9.0116 | solid 309.7740
  Impulse FP iterations last/mean/max 8/8.14/9
Step   800/2000   40.0% | t 40.000 | ETA 2m 22s | step 0.12s | KE 319.3805 | drift -1.67% | fluid 9.1631 | solid 310.2174
  Impulse FP iterations last/mean/max 8/8.15/9
Step   900/2000   45.0% | t 45.000 | ETA 2m 10s | step 0.12s | KE 320.8254 | drift -1.22% | fluid 8.8830 | solid 311.9424
  Impulse FP iterations last/mean/max 8/8.16/9
Step  1000/2000   50.0% | t 50.000 | ETA 1m 58s | step 0.12s | KE 322.1337 | drift -0.82% | fluid 8.8612 | solid 313.2725
  Impulse FP iterations last/mean/max 8/8.15/9
Step  1100/2000   55.0% | t 55.000 | ETA 1m 46s | step 0.11s | KE 323.4776 | drift -0.41% | fluid 9.1966 | solid 314.2810
  Impulse FP iterations last/mean/max 8/8.14/9
Step  1200/2000   60.0% | t 60.000 | ETA 1m 34s | step 0.13s | KE 324.7045 | drift -0.03% | fluid 8.5478 | solid 316.1567
  Impulse FP iterations last/mean/max 9/8.14/9
Step  1300/2000   65.0% | t 65.000 | ETA 1m 23s | step 0.12s | KE 325.9694 | drift +0.36% | fluid 9.2919 | solid 316.6776
  Impulse FP iterations last/mean/max 8/8.15/9
Step  1400/2000   70.0% | t 70.000 | ETA 1m 11s | step 0.12s | KE 326.9217 | drift +0.65% | fluid 8.8618 | solid 318.0598
  Impulse FP iterations last/mean/max 8/8.14/9
Step  1500/2000   75.0% | t 75.000 | ETA 59s | step 0.11s | KE 327.9442 | drift +0.97% | fluid 8.9141 | solid 319.0301
  Impulse FP iterations last/mean/max 8/8.13/9
Step  1600/2000   80.0% | t 80.000 | ETA 47s | step 0.12s | KE 328.7330 | drift +1.21% | fluid 8.6083 | solid 320.1247
  Impulse FP iterations last/mean/max 8/8.12/9
Step  1700/2000   85.0% | t 85.000 | ETA 35s | step 0.09s | KE 329.4936 | drift +1.44% | fluid 9.1195 | solid 320.3741
  Impulse FP iterations last/mean/max 8/8.12/9
Step  1800/2000   90.0% | t 90.000 | ETA 23s | step 0.07s | KE 329.8775 | drift +1.56% | fluid 9.0960 | solid 320.7815
  Impulse FP iterations last/mean/max 8/8.11/9
Step  1900/2000   95.0% | t 95.000 | ETA 11s | step 0.07s | KE 330.4508 | drift +1.74% | fluid 8.8204 | solid 321.6304
  Impulse FP iterations last/mean/max 8/8.11/9
Solver finished successfully - good job!
Results saved successfully.

================== Run summary ==================
  Bodies:            2
  Triangles / nodes: 256 / 516
  Timesteps:         2000  (dt = 0.05)
  Simulated time:    0 -> 100
  First-step setup:  0.322 s
  Mean time/step:    0.1110 s  (excl. first step)
  Total wall time:   3m 42s
  Impulse FP iters last/mean/max: 8 / 8.099 / 9
  Approx impulse solves/step:     8.100
  Impulse start cache hits/direct: 1999 / 1
  Impulse global drift P/H:       1.600593e-8 / 1.233714e-2
  Impulse per-body max drift P/H: 3.429522e-8 / 4.400740e-3
  CPU cores:         256 available, 8 Rayon worker thread(s)
  Started:           2026-06-24 01:25:49
  Finished:          2026-06-24 01:29:32
  Output file:       /work/e643/e643/shared/multi_ellip/studies/two_body_paper_sweeps/runs/spheroid_1_0p7_0p7/spheroid_1_0p7_0p7_rho4_E11_sep3_run03_impulse_noproj/multiple_body_complete.dat
================================================
