
================ Simulation setup ================
  Run label:         /work/e643/e643/shared/multi_ellip/studies/two_body_paper_sweeps/runs/ellipsoid_1_0p8_0p6/ellipsoid_1_0p8_0p6_rho0p1_E0p55_sep3_run02_impulse_noproj/
  Started:           2026-06-24 02:05:10
  Input file:        /work/e643/e643/shared/multi_ellip/studies/two_body_paper_sweeps/runs/ellipsoid_1_0p8_0p6/ellipsoid_1_0p8_0p6_rho0p1_E0p55_sep3_run02_impulse_noproj/input.txt
  Output file:       /work/e643/e643/shared/multi_ellip/studies/two_body_paper_sweeps/runs/ellipsoid_1_0p8_0p6/ellipsoid_1_0p8_0p6_rho0p1_E0p55_sep3_run02_impulse_noproj/multiple_body_complete.dat
  Bodies:            2
  Fluid density:     1
  Mesh:              ndiv 2 -> 256 triangles / 516 nodes
  Simulated time:    0 -> 100  (dt = 0.05, ~2000 steps)
  Output cadence:    every 1 step(s)
  Output rows:       ~2001
  Progress cadence:  every 100 step(s)
  CPU cores:         256 available, 8 Rayon worker thread(s)
  Strong coupling:   disabled
  Impulse scheme:    enabled
  Hamiltonian step:  disabled
  Hamiltonian midpt: disabled
  Variational step:  disabled
  Energy projection: disabled
  Projection particular metric: Euclidean
  Fluid KE gradient: disabled  (eps = 0.001, scale = 1, linear = 1, angular = 1)
  Fluid KE discrete gradient: disabled
  Impulse pair metric correction: disabled  (mode = pair discrete-gradient, cutoff = all pairs, inner/outer = 0/0, eps = 0.001, linear scale = 1, angular scale = 0)
  Impulse metric correction: disabled  (internal load constraint = disabled)
  Impulse variational defect probe: disabled
  Impulse quadratic pressure: disabled  (scale = 1)
  Added-mass stab:   disabled
  Exact BEM geometry: disabled
  Exact singular BEM: disabled
  Legacy singular SLP diagnostic: disabled
  Phi-dot blend:     0 (off)

  Solver guidance:
    - Strong coupling: use for stiff close-coupled runs; slower but more implicit.
    - Impulse scheme: use when impulse/momentum conservation or KE drift is the focus. Recommended.
    - Added-mass stab: use for higher mesh counts (ndiv > 3) to preserve stability - deprecated.
================================================
Solver starting - good luck!

Initial state:
  Body  1
    density:          0.100000
    shape axes ratio: (1.000000, 0.800000, 0.600000)
    initial KE ratio: 0.550000
    position:         (-1.500000, 0.000000, 0.000000)
    velocity:         (-3.475528, 3.227817, -2.304347)
    angular velocity: (-4.910551, 2.946425, -2.585243)
    orientation:      (w=0.671029, i=-0.078424, j=0.732802, k=0.081055)
  Body  2
    density:          0.100000
    shape axes ratio: (1.000000, 0.800000, 0.600000)
    initial KE ratio: 0.550000
    position:         (1.500000, 0.000000, 0.000000)
    velocity:         (-3.319418, 3.082832, -2.200842)
    angular velocity: (-5.661345, -2.289625, -1.478244)
    orientation:      (w=-0.116662, i=0.173454, j=0.749669, k=-0.627933)

Preparing first step: implicit scheme, no bootstrap passes required.
First step may take longer than later steps.

First step completed in 0.438 s.

Step   100/2000    5.0% | t 5.000 | ETA 9m 5s | step 0.32s | KE 93.0266 | drift +21.30% | fluid 66.0510 | solid 26.9756
  Impulse FP iterations last/mean/max 22/20.28/23
Step   200/2000   10.0% | t 10.000 | ETA 8m 29s | step 0.27s | KE 94.8336 | drift +23.66% | fluid 68.6246 | solid 26.2089
  Impulse FP iterations last/mean/max 22/20.31/24
Step   300/2000   15.0% | t 15.000 | ETA 7m 50s | step 0.24s | KE 95.3707 | drift +24.36% | fluid 68.6049 | solid 26.7657
  Impulse FP iterations last/mean/max 18/20.27/24
Step   400/2000   20.0% | t 20.000 | ETA 7m 19s | step 0.26s | KE 94.9215 | drift +23.77% | fluid 68.0065 | solid 26.9150
  Impulse FP iterations last/mean/max 21/20.27/24
Step   500/2000   25.0% | t 25.000 | ETA 6m 48s | step 0.27s | KE 93.6774 | drift +22.15% | fluid 64.9687 | solid 28.7087
  Impulse FP iterations last/mean/max 20/20.25/24
Step   600/2000   30.0% | t 30.000 | ETA 6m 19s | step 0.29s | KE 94.3702 | drift +23.05% | fluid 65.0902 | solid 29.2800
  Impulse FP iterations last/mean/max 21/20.25/24
Step   700/2000   35.0% | t 35.000 | ETA 5m 50s | step 0.24s | KE 95.5163 | drift +24.55% | fluid 66.9003 | solid 28.6160
  Impulse FP iterations last/mean/max 19/20.24/24
Step   800/2000   40.0% | t 40.000 | ETA 5m 22s | step 0.32s | KE 95.0092 | drift +23.89% | fluid 65.4068 | solid 29.6025
  Impulse FP iterations last/mean/max 22/20.24/24
Step   900/2000   45.0% | t 45.000 | ETA 4m 55s | step 0.28s | KE 93.9837 | drift +22.55% | fluid 64.3029 | solid 29.6808
  Impulse FP iterations last/mean/max 21/20.24/24
Step  1000/2000   50.0% | t 50.000 | ETA 4m 28s | step 0.29s | KE 93.8484 | drift +22.37% | fluid 61.5599 | solid 32.2885
  Impulse FP iterations last/mean/max 21/20.24/24
Step  1100/2000   55.0% | t 55.000 | ETA 4m 1s | step 0.26s | KE 94.9474 | drift +23.81% | fluid 63.7169 | solid 31.2305
  Impulse FP iterations last/mean/max 19/20.24/24
Step  1200/2000   60.0% | t 60.000 | ETA 3m 34s | step 0.25s | KE 95.3447 | drift +24.33% | fluid 64.3595 | solid 30.9852
  Impulse FP iterations last/mean/max 20/20.24/24
Step  1300/2000   65.0% | t 65.000 | ETA 3m 7s | step 0.28s | KE 94.2830 | drift +22.94% | fluid 61.5759 | solid 32.7071
  Impulse FP iterations last/mean/max 20/20.24/24
Step  1400/2000   70.0% | t 70.000 | ETA 2m 40s | step 0.23s | KE 93.6864 | drift +22.16% | fluid 62.9886 | solid 30.6978
  Impulse FP iterations last/mean/max 20/20.23/24
Step  1500/2000   75.0% | t 75.000 | ETA 2m 13s | step 0.29s | KE 94.5803 | drift +23.33% | fluid 62.5358 | solid 32.0445
  Impulse FP iterations last/mean/max 21/20.24/24
Step  1600/2000   80.0% | t 80.000 | ETA 1m 46s | step 0.21s | KE 95.1723 | drift +24.10% | fluid 64.2741 | solid 30.8982
  Impulse FP iterations last/mean/max 20/20.24/24
Step  1700/2000   85.0% | t 85.000 | ETA 1m 19s | step 0.21s | KE 95.0966 | drift +24.00% | fluid 65.6855 | solid 29.4111
  Impulse FP iterations last/mean/max 20/20.24/24
Step  1800/2000   90.0% | t 90.000 | ETA 52s | step 0.24s | KE 93.8111 | drift +22.33% | fluid 62.4573 | solid 31.3538
  Impulse FP iterations last/mean/max 23/20.24/24
Step  1900/2000   95.0% | t 95.000 | ETA 26s | step 0.24s | KE 94.1818 | drift +22.81% | fluid 64.8039 | solid 29.3780
  Impulse FP iterations last/mean/max 22/20.24/24
Solver finished successfully - good job!
Results saved successfully.

================== Run summary ==================
  Bodies:            2
  Triangles / nodes: 256 / 516
  Timesteps:         2000  (dt = 0.05)
  Simulated time:    0 -> 100
  First-step setup:  0.438 s
  Mean time/step:    0.2574 s  (excl. first step)
  Total wall time:   8m 34s
  Impulse FP iters last/mean/max: 19 / 20.245 / 24
  Approx impulse solves/step:     20.245
  Impulse start cache hits/direct: 1999 / 1
  Impulse global drift P/H:       8.022752e-8 / 2.884230e-1
  Impulse per-body max drift P/H: 1.021981e-7 / 6.292433e-2
  CPU cores:         256 available, 8 Rayon worker thread(s)
  Started:           2026-06-24 02:05:10
  Finished:          2026-06-24 02:13:45
  Output file:       /work/e643/e643/shared/multi_ellip/studies/two_body_paper_sweeps/runs/ellipsoid_1_0p8_0p6/ellipsoid_1_0p8_0p6_rho0p1_E0p55_sep3_run02_impulse_noproj/multiple_body_complete.dat
================================================
