
================ Simulation setup ================
  Run label:         /work/e643/e643/shared/multi_ellip/studies/two_body_paper_sweeps/runs/ellipsoid_1_0p8_0p6/ellipsoid_1_0p8_0p6_rho10_E1p5_sep8_run02_impulse_noproj/
  Started:           2026-06-22 19:23:16
  Input file:        /work/e643/e643/shared/multi_ellip/studies/two_body_paper_sweeps/runs/ellipsoid_1_0p8_0p6/ellipsoid_1_0p8_0p6_rho10_E1p5_sep8_run02_impulse_noproj/input.txt
  Output file:       /work/e643/e643/shared/multi_ellip/studies/two_body_paper_sweeps/runs/ellipsoid_1_0p8_0p6/ellipsoid_1_0p8_0p6_rho10_E1p5_sep8_run02_impulse_noproj/multiple_body_complete.dat
  Bodies:            2
  Fluid density:     1
  Mesh:              ndiv 2 -> 256 triangles / 516 nodes
  Simulated time:    0 -> 100  (dt = 0.05, ~2000 steps)
  Output cadence:    every 1 step(s)
  Output rows:       ~2001
  Progress cadence:  every 100 step(s)
  CPU cores:         256 available, 8 Rayon worker thread(s)
  Strong coupling:   disabled
  Impulse scheme:    enabled
  Hamiltonian step:  disabled
  Hamiltonian midpt: disabled
  Variational step:  disabled
  Energy projection: disabled
  Projection particular metric: Euclidean
  Fluid KE gradient: disabled  (eps = 0.001, scale = 1, linear = 1, angular = 1)
  Fluid KE discrete gradient: disabled
  Impulse pair metric correction: disabled  (mode = pair discrete-gradient, cutoff = all pairs, inner/outer = 0/0, eps = 0.001, linear scale = 1, angular scale = 0)
  Impulse metric correction: disabled  (internal load constraint = disabled)
  Impulse variational defect probe: disabled
  Impulse quadratic pressure: disabled  (scale = 1)
  Added-mass stab:   disabled
  Exact BEM geometry: disabled
  Exact singular BEM: disabled
  Legacy singular SLP diagnostic: disabled
  Phi-dot blend:     0 (off)

  Solver guidance:
    - Strong coupling: use for stiff close-coupled runs; slower but more implicit.
    - Impulse scheme: use when impulse/momentum conservation or KE drift is the focus. Recommended.
    - Added-mass stab: use for higher mesh counts (ndiv > 3) to preserve stability - deprecated.
================================================
Solver starting - good luck!

Initial state:
  Body  1
    density:          10.000000
    shape axes ratio: (1.000000, 0.800000, 0.600000)
    initial KE ratio: 1.500000
    position:         (-4.000000, 0.000000, 0.000000)
    velocity:         (-2.495001, 1.802442, -1.419879)
    angular velocity: (2.157623, 5.649387, 1.705142)
    orientation:      (w=0.577350, i=0.577350, j=0.577350, k=0.000000)
  Body  2
    density:          10.000000
    shape axes ratio: (1.000000, 0.800000, 0.600000)
    initial KE ratio: 1.500000
    position:         (4.000000, 0.000000, 0.000000)
    velocity:         (-2.563612, 1.852008, -1.458925)
    angular velocity: (1.934307, -4.846094, -3.500320)
    orientation:      (w=0.577350, i=-0.577350, j=0.000000, k=0.577350)

Preparing first step: implicit scheme, no bootstrap passes required.
First step may take longer than later steps.

First step completed in 7.518 s.

Step   100/2000    5.0% | t 5.000 | ETA 2m 53s | step 0.10s | KE 1317.7600 | drift +0.00% | fluid 35.6200 | solid 1282.1400
  Impulse FP iterations last/mean/max 7/7.08/8
Step   200/2000   10.0% | t 10.000 | ETA 2m 49s | step 0.10s | KE 1318.3028 | drift +0.05% | fluid 31.4898 | solid 1286.8130
  Impulse FP iterations last/mean/max 7/7.09/8
Step   300/2000   15.0% | t 15.000 | ETA 2m 41s | step 0.09s | KE 1319.6385 | drift +0.15% | fluid 35.8717 | solid 1283.7668
  Impulse FP iterations last/mean/max 7/7.09/8
Step   400/2000   20.0% | t 20.000 | ETA 2m 33s | step 0.09s | KE 1323.4211 | drift +0.43% | fluid 30.9407 | solid 1292.4804
  Impulse FP iterations last/mean/max 7/7.12/8
Step   500/2000   25.0% | t 25.000 | ETA 2m 23s | step 0.09s | KE 1330.3808 | drift +0.96% | fluid 38.6259 | solid 1291.7550
  Impulse FP iterations last/mean/max 7/7.12/8
Step   600/2000   30.0% | t 30.000 | ETA 2m 14s | step 0.09s | KE 1343.5935 | drift +1.97% | fluid 27.3316 | solid 1316.2619
  Impulse FP iterations last/mean/max 7/7.12/8
Step   700/2000   35.0% | t 35.000 | ETA 2m 5s | step 0.10s | KE 1365.2910 | drift +3.61% | fluid 37.4647 | solid 1327.8262
  Impulse FP iterations last/mean/max 7/7.12/8
Step   800/2000   40.0% | t 40.000 | ETA 1m 55s | step 0.09s | KE 1395.7220 | drift +5.92% | fluid 32.8179 | solid 1362.9041
  Impulse FP iterations last/mean/max 7/7.12/8
Step   900/2000   45.0% | t 45.000 | ETA 1m 46s | step 0.10s | KE 1430.1430 | drift +8.53% | fluid 36.2850 | solid 1393.8581
  Impulse FP iterations last/mean/max 7/7.13/8
Step  1000/2000   50.0% | t 50.000 | ETA 1m 37s | step 0.10s | KE 1457.3653 | drift +10.60% | fluid 44.4714 | solid 1412.8939
  Impulse FP iterations last/mean/max 7/7.13/8
Step  1100/2000   55.0% | t 55.000 | ETA 1m 27s | step 0.10s | KE 1471.0956 | drift +11.64% | fluid 29.7769 | solid 1441.3187
  Impulse FP iterations last/mean/max 7/7.13/8
Step  1200/2000   60.0% | t 60.000 | ETA 1m 18s | step 0.10s | KE 1470.4451 | drift +11.59% | fluid 31.1889 | solid 1439.2562
  Impulse FP iterations last/mean/max 7/7.14/8
Step  1300/2000   65.0% | t 65.000 | ETA 1m 8s | step 0.09s | KE 1465.2033 | drift +11.19% | fluid 39.0883 | solid 1426.1150
  Impulse FP iterations last/mean/max 7/7.15/8
Step  1400/2000   70.0% | t 70.000 | ETA 58s | step 0.10s | KE 1459.4855 | drift +10.76% | fluid 39.4353 | solid 1420.0502
  Impulse FP iterations last/mean/max 7/7.15/8
Step  1500/2000   75.0% | t 75.000 | ETA 48s | step 0.10s | KE 1455.4251 | drift +10.45% | fluid 29.5707 | solid 1425.8544
  Impulse FP iterations last/mean/max 7/7.14/8
Step  1600/2000   80.0% | t 80.000 | ETA 39s | step 0.09s | KE 1452.6967 | drift +10.25% | fluid 29.9789 | solid 1422.7178
  Impulse FP iterations last/mean/max 7/7.14/8
Step  1700/2000   85.0% | t 85.000 | ETA 29s | step 0.09s | KE 1451.4888 | drift +10.15% | fluid 32.0216 | solid 1419.4672
  Impulse FP iterations last/mean/max 7/7.14/8
Step  1800/2000   90.0% | t 90.000 | ETA 19s | step 0.08s | KE 1450.9926 | drift +10.12% | fluid 29.4929 | solid 1421.4997
  Impulse FP iterations last/mean/max 7/7.13/8
Step  1900/2000   95.0% | t 95.000 | ETA 9s | step 0.09s | KE 1450.2780 | drift +10.06% | fluid 35.5856 | solid 1414.6924
  Impulse FP iterations last/mean/max 7/7.13/8
Solver finished successfully - good job!
Results saved successfully.

================== Run summary ==================
  Bodies:            2
  Triangles / nodes: 256 / 516
  Timesteps:         2000  (dt = 0.05)
  Simulated time:    0 -> 100
  First-step setup:  7.518 s
  Mean time/step:    0.0957 s  (excl. first step)
  Total wall time:   3m 18s
  Impulse FP iters last/mean/max: 7 / 7.131 / 8
  Approx impulse solves/step:     7.131
  Impulse start cache hits/direct: 1999 / 1
  Impulse global drift P/H:       2.774877e-9 / 3.129289e-2
  Impulse per-body max drift P/H: 4.383989e-9 / 7.782780e-3
  CPU cores:         256 available, 8 Rayon worker thread(s)
  Started:           2026-06-22 19:23:16
  Finished:          2026-06-22 19:26:36
  Output file:       /work/e643/e643/shared/multi_ellip/studies/two_body_paper_sweeps/runs/ellipsoid_1_0p8_0p6/ellipsoid_1_0p8_0p6_rho10_E1p5_sep8_run02_impulse_noproj/multiple_body_complete.dat
================================================
