
================ Simulation setup ================
  Run label:         /work/e643/e643/shared/multi_ellip/studies/two_body_paper_sweeps/runs/ellipsoid_1_0p8_0p6/ellipsoid_1_0p8_0p6_rho0p1_E0p55_sep11_run05_impulse_noproj/
  Started:           2026-06-24 02:05:12
  Input file:        /work/e643/e643/shared/multi_ellip/studies/two_body_paper_sweeps/runs/ellipsoid_1_0p8_0p6/ellipsoid_1_0p8_0p6_rho0p1_E0p55_sep11_run05_impulse_noproj/input.txt
  Output file:       /work/e643/e643/shared/multi_ellip/studies/two_body_paper_sweeps/runs/ellipsoid_1_0p8_0p6/ellipsoid_1_0p8_0p6_rho0p1_E0p55_sep11_run05_impulse_noproj/multiple_body_complete.dat
  Bodies:            2
  Fluid density:     1
  Mesh:              ndiv 2 -> 256 triangles / 516 nodes
  Simulated time:    0 -> 100  (dt = 0.05, ~2000 steps)
  Output cadence:    every 1 step(s)
  Output rows:       ~2001
  Progress cadence:  every 100 step(s)
  CPU cores:         256 available, 8 Rayon worker thread(s)
  Strong coupling:   disabled
  Impulse scheme:    enabled
  Hamiltonian step:  disabled
  Hamiltonian midpt: disabled
  Variational step:  disabled
  Energy projection: disabled
  Projection particular metric: Euclidean
  Fluid KE gradient: disabled  (eps = 0.001, scale = 1, linear = 1, angular = 1)
  Fluid KE discrete gradient: disabled
  Impulse pair metric correction: disabled  (mode = pair discrete-gradient, cutoff = all pairs, inner/outer = 0/0, eps = 0.001, linear scale = 1, angular scale = 0)
  Impulse metric correction: disabled  (internal load constraint = disabled)
  Impulse variational defect probe: disabled
  Impulse quadratic pressure: disabled  (scale = 1)
  Added-mass stab:   disabled
  Exact BEM geometry: disabled
  Exact singular BEM: disabled
  Legacy singular SLP diagnostic: disabled
  Phi-dot blend:     0 (off)

  Solver guidance:
    - Strong coupling: use for stiff close-coupled runs; slower but more implicit.
    - Impulse scheme: use when impulse/momentum conservation or KE drift is the focus. Recommended.
    - Added-mass stab: use for higher mesh counts (ndiv > 3) to preserve stability - deprecated.
================================================
Solver starting - good luck!

Initial state:
  Body  1
    density:          0.100000
    shape axes ratio: (1.000000, 0.800000, 0.600000)
    initial KE ratio: 0.550000
    position:         (-5.500000, 0.000000, 0.000000)
    velocity:         (-3.682328, 4.894456, 0.554655)
    angular velocity: (1.024960, 1.047781, -6.109831)
    orientation:      (w=0.121510, i=0.786189, j=0.544938, k=0.264926)
  Body  2
    density:          0.100000
    shape axes ratio: (1.000000, 0.800000, 0.600000)
    initial KE ratio: 0.550000
    position:         (5.500000, 0.000000, 0.000000)
    velocity:         (-3.267316, 4.342833, 0.492144)
    angular velocity: (-4.727858, -0.920327, -4.034696)
    orientation:      (w=-0.417767, i=-0.261131, j=-0.841842, k=0.220417)

Preparing first step: implicit scheme, no bootstrap passes required.
First step may take longer than later steps.

First step completed in 0.503 s.

Step   100/2000    5.0% | t 5.000 | ETA 8m 46s | step 0.27s | KE 112.8101 | drift +0.77% | fluid 92.4386 | solid 20.3715
  Impulse FP iterations last/mean/max 21/19.76/23
Step   200/2000   10.0% | t 10.000 | ETA 8m 15s | step 0.27s | KE 111.5140 | drift -0.39% | fluid 88.7724 | solid 22.7415
  Impulse FP iterations last/mean/max 21/19.82/23
Step   300/2000   15.0% | t 15.000 | ETA 7m 41s | step 0.25s | KE 112.3578 | drift +0.37% | fluid 93.6828 | solid 18.6750
  Impulse FP iterations last/mean/max 20/19.84/23
Step   400/2000   20.0% | t 20.000 | ETA 7m 6s | step 0.31s | KE 111.2563 | drift -0.62% | fluid 86.5135 | solid 24.7428
  Impulse FP iterations last/mean/max 23/19.83/24
Step   500/2000   25.0% | t 25.000 | ETA 6m 38s | step 0.25s | KE 113.0546 | drift +0.99% | fluid 93.3294 | solid 19.7251
  Impulse FP iterations last/mean/max 19/19.85/24
Step   600/2000   30.0% | t 30.000 | ETA 6m 11s | step 0.28s | KE 112.2523 | drift +0.27% | fluid 89.2719 | solid 22.9804
  Impulse FP iterations last/mean/max 19/19.85/24
Step   700/2000   35.0% | t 35.000 | ETA 5m 43s | step 0.26s | KE 112.7393 | drift +0.71% | fluid 92.3041 | solid 20.4352
  Impulse FP iterations last/mean/max 19/19.84/24
Step   800/2000   40.0% | t 40.000 | ETA 5m 16s | step 0.28s | KE 111.8985 | drift -0.04% | fluid 89.0852 | solid 22.8133
  Impulse FP iterations last/mean/max 20/19.83/24
Step   900/2000   45.0% | t 45.000 | ETA 4m 49s | step 0.29s | KE 112.3142 | drift +0.33% | fluid 89.7416 | solid 22.5726
  Impulse FP iterations last/mean/max 21/19.84/24
Step  1000/2000   50.0% | t 50.000 | ETA 4m 22s | step 0.26s | KE 111.3758 | drift -0.51% | fluid 89.6673 | solid 21.7085
  Impulse FP iterations last/mean/max 22/19.85/24
Step  1100/2000   55.0% | t 55.000 | ETA 3m 55s | step 0.29s | KE 112.1031 | drift +0.14% | fluid 92.1371 | solid 19.9660
  Impulse FP iterations last/mean/max 20/19.86/24
Step  1200/2000   60.0% | t 60.000 | ETA 3m 30s | step 0.25s | KE 112.3350 | drift +0.35% | fluid 92.2624 | solid 20.0726
  Impulse FP iterations last/mean/max 20/19.85/24
Step  1300/2000   65.0% | t 65.000 | ETA 3m 3s | step 0.29s | KE 112.8227 | drift +0.78% | fluid 90.0623 | solid 22.7604
  Impulse FP iterations last/mean/max 21/19.86/24
Step  1400/2000   70.0% | t 70.000 | ETA 2m 36s | step 0.29s | KE 111.5228 | drift -0.38% | fluid 90.2297 | solid 21.2930
  Impulse FP iterations last/mean/max 21/19.84/24
Step  1500/2000   75.0% | t 75.000 | ETA 2m 10s | step 0.28s | KE 112.6323 | drift +0.61% | fluid 90.4133 | solid 22.2190
  Impulse FP iterations last/mean/max 20/19.85/24
Step  1600/2000   80.0% | t 80.000 | ETA 1m 43s | step 0.23s | KE 111.8358 | drift -0.10% | fluid 88.2190 | solid 23.6168
  Impulse FP iterations last/mean/max 20/19.85/24
Step  1700/2000   85.0% | t 85.000 | ETA 1m 17s | step 0.24s | KE 112.1138 | drift +0.15% | fluid 90.0674 | solid 22.0464
  Impulse FP iterations last/mean/max 19/19.85/24
Step  1800/2000   90.0% | t 90.000 | ETA 51s | step 0.27s | KE 112.8076 | drift +0.77% | fluid 90.8528 | solid 21.9548
  Impulse FP iterations last/mean/max 19/19.84/24
Step  1900/2000   95.0% | t 95.000 | ETA 25s | step 0.22s | KE 112.3581 | drift +0.37% | fluid 89.2780 | solid 23.0800
  Impulse FP iterations last/mean/max 19/19.85/24
Solver finished successfully - good job!
Results saved successfully.

================== Run summary ==================
  Bodies:            2
  Triangles / nodes: 256 / 516
  Timesteps:         2000  (dt = 0.05)
  Simulated time:    0 -> 100
  First-step setup:  0.503 s
  Mean time/step:    0.2560 s  (excl. first step)
  Total wall time:   8m 32s
  Impulse FP iters last/mean/max: 19 / 19.858 / 24
  Approx impulse solves/step:     19.858
  Impulse start cache hits/direct: 1999 / 1
  Impulse global drift P/H:       4.758763e-8 / 1.432474e-2
  Impulse per-body max drift P/H: 7.432387e-8 / 7.512338e-3
  CPU cores:         256 available, 8 Rayon worker thread(s)
  Started:           2026-06-24 02:05:12
  Finished:          2026-06-24 02:13:45
  Output file:       /work/e643/e643/shared/multi_ellip/studies/two_body_paper_sweeps/runs/ellipsoid_1_0p8_0p6/ellipsoid_1_0p8_0p6_rho0p1_E0p55_sep11_run05_impulse_noproj/multiple_body_complete.dat
================================================
