
================ Simulation setup ================
  Run label:         /work/e643/e643/shared/multi_ellip/studies/departing_sphericity_sweep/runs/triaxial/homogeneous/triaxial_homogeneous_eps1_rho1_E0p5_sep8_run10_impulse_noproj/
  Started:           2026-06-24 02:37:12
  Input file:        /work/e643/e643/shared/multi_ellip/studies/departing_sphericity_sweep/runs/triaxial/homogeneous/triaxial_homogeneous_eps1_rho1_E0p5_sep8_run10_impulse_noproj/input.txt
  Output file:       /work/e643/e643/shared/multi_ellip/studies/departing_sphericity_sweep/runs/triaxial/homogeneous/triaxial_homogeneous_eps1_rho1_E0p5_sep8_run10_impulse_noproj/multiple_body_complete.dat
  Bodies:            2
  Fluid density:     1
  Mesh:              ndiv 2 -> 256 triangles / 516 nodes
  Simulated time:    0 -> 100  (dt = 0.05, ~2000 steps)
  Output cadence:    every 1 step(s)
  Output rows:       ~2001
  Progress cadence:  every 100 step(s)
  CPU cores:         256 available, 8 Rayon worker thread(s)
  Strong coupling:   disabled
  Impulse scheme:    enabled
  Hamiltonian step:  disabled
  Hamiltonian midpt: disabled
  Variational step:  disabled
  Energy projection: disabled
  Projection particular metric: Euclidean
  Fluid KE gradient: disabled  (eps = 0.001, scale = 1, linear = 1, angular = 1)
  Fluid KE discrete gradient: disabled
  Impulse pair metric correction: disabled  (mode = pair discrete-gradient, cutoff = all pairs, inner/outer = 0/0, eps = 0.001, linear scale = 1, angular scale = 0)
  Impulse metric correction: disabled  (internal load constraint = disabled)
  Impulse variational defect probe: disabled
  Impulse quadratic pressure: disabled  (scale = 1)
  Added-mass stab:   disabled
  Exact BEM geometry: disabled
  Exact singular BEM: disabled
  Legacy singular SLP diagnostic: disabled
  Phi-dot blend:     0 (off)

  Solver guidance:
    - Strong coupling: use for stiff close-coupled runs; slower but more implicit.
    - Impulse scheme: use when impulse/momentum conservation or KE drift is the focus. Recommended.
    - Added-mass stab: use for higher mesh counts (ndiv > 3) to preserve stability - deprecated.
================================================
Solver starting - good luck!

Initial state:
  Body  1
    density:          1.000000
    shape axes ratio: (1.000000, 0.500000, 0.250000)
    initial KE ratio: 0.500000
    position:         (-4.000000, 0.000000, 0.000000)
    velocity:         (5.491888, 1.481590, -6.233669)
    angular velocity: (-1.899291, -2.787654, 5.300952)
    orientation:      (w=0.394198, i=-0.207913, j=-0.893295, k=0.058347)
  Body  2
    density:          1.000000
    shape axes ratio: (1.000000, 0.500000, 0.250000)
    initial KE ratio: 0.500000
    position:         (4.000000, 0.000000, 0.000000)
    velocity:         (5.148692, 1.389003, -5.844118)
    angular velocity: (2.649268, -4.410908, 3.606062)
    orientation:      (w=-0.430448, i=0.351418, j=-0.452006, k=0.697790)

Preparing first step: implicit scheme, no bootstrap passes required.
First step may take longer than later steps.

First step completed in 0.349 s.

Step   100/2000    5.0% | t 5.000 | ETA 7m 46s | step 0.26s | KE 550.7532 | drift -0.69% | fluid 181.9923 | solid 368.7609
  Impulse FP iterations last/mean/max 17/16.54/19
Step   200/2000   10.0% | t 10.000 | ETA 7m 22s | step 0.23s | KE 549.9234 | drift -0.84% | fluid 100.7326 | solid 449.1908
  Impulse FP iterations last/mean/max 15/16.59/21
Step   300/2000   15.0% | t 15.000 | ETA 6m 59s | step 0.24s | KE 552.2982 | drift -0.41% | fluid 166.9470 | solid 385.3512
  Impulse FP iterations last/mean/max 16/16.65/21
Step   400/2000   20.0% | t 20.000 | ETA 6m 33s | step 0.24s | KE 554.2122 | drift -0.07% | fluid 144.9239 | solid 409.2883
  Impulse FP iterations last/mean/max 17/16.62/21
Step   500/2000   25.0% | t 25.000 | ETA 6m 7s | step 0.27s | KE 545.4906 | drift -1.64% | fluid 185.8319 | solid 359.6587
  Impulse FP iterations last/mean/max 18/16.54/21
Step   600/2000   30.0% | t 30.000 | ETA 5m 35s | step 0.21s | KE 549.2344 | drift -0.97% | fluid 217.8299 | solid 331.4045
  Impulse FP iterations last/mean/max 18/16.54/21
Step   700/2000   35.0% | t 35.000 | ETA 5m 2s | step 0.17s | KE 546.7764 | drift -1.41% | fluid 146.6321 | solid 400.1443
  Impulse FP iterations last/mean/max 15/16.51/21
Step   800/2000   40.0% | t 40.000 | ETA 4m 28s | step 0.14s | KE 555.1187 | drift +0.09% | fluid 153.5616 | solid 401.5570
  Impulse FP iterations last/mean/max 16/16.53/21
Step   900/2000   45.0% | t 45.000 | ETA 3m 57s | step 0.16s | KE 548.4518 | drift -1.11% | fluid 176.5785 | solid 371.8733
  Impulse FP iterations last/mean/max 17/16.53/21
Step  1000/2000   50.0% | t 50.000 | ETA 3m 29s | step 0.17s | KE 549.1997 | drift -0.97% | fluid 198.0150 | solid 351.1847
  Impulse FP iterations last/mean/max 18/16.53/21
Step  1100/2000   55.0% | t 55.000 | ETA 3m 3s | step 0.16s | KE 547.1251 | drift -1.35% | fluid 190.1204 | solid 357.0047
  Impulse FP iterations last/mean/max 17/16.55/21
Step  1200/2000   60.0% | t 60.000 | ETA 2m 40s | step 0.16s | KE 550.1796 | drift -0.80% | fluid 190.3124 | solid 359.8672
  Impulse FP iterations last/mean/max 17/16.55/21
Step  1300/2000   65.0% | t 65.000 | ETA 2m 17s | step 0.14s | KE 548.2663 | drift -1.14% | fluid 205.8665 | solid 342.3997
  Impulse FP iterations last/mean/max 16/16.57/21
Step  1400/2000   70.0% | t 70.000 | ETA 1m 55s | step 0.15s | KE 554.3143 | drift -0.05% | fluid 153.9315 | solid 400.3828
  Impulse FP iterations last/mean/max 16/16.57/21
Step  1500/2000   75.0% | t 75.000 | ETA 1m 35s | step 0.15s | KE 553.3233 | drift -0.23% | fluid 131.4007 | solid 421.9226
  Impulse FP iterations last/mean/max 16/16.58/21
Step  1600/2000   80.0% | t 80.000 | ETA 1m 15s | step 0.14s | KE 551.6130 | drift -0.54% | fluid 153.3152 | solid 398.2978
  Impulse FP iterations last/mean/max 16/16.58/21
Step  1700/2000   85.0% | t 85.000 | ETA 55s | step 0.14s | KE 552.4537 | drift -0.39% | fluid 139.8187 | solid 412.6350
  Impulse FP iterations last/mean/max 16/16.58/21
Step  1800/2000   90.0% | t 90.000 | ETA 36s | step 0.14s | KE 551.4687 | drift -0.56% | fluid 116.7034 | solid 434.7653
  Impulse FP iterations last/mean/max 15/16.58/21
Step  1900/2000   95.0% | t 95.000 | ETA 18s | step 0.15s | KE 550.4658 | drift -0.74% | fluid 158.4877 | solid 391.9781
  Impulse FP iterations last/mean/max 17/16.58/21
Solver finished successfully - good job!
Results saved successfully.

================== Run summary ==================
  Bodies:            2
  Triangles / nodes: 256 / 516
  Timesteps:         2000  (dt = 0.05)
  Simulated time:    0 -> 100
  First-step setup:  0.349 s
  Mean time/step:    0.1803 s  (excl. first step)
  Total wall time:   6m 0s
  Impulse FP iters last/mean/max: 17 / 16.576 / 21
  Approx impulse solves/step:     16.576
  Impulse start cache hits/direct: 1999 / 1
  Impulse global drift P/H:       2.513191e-9 / 2.361425e-1
  Impulse per-body max drift P/H: 2.495795e-9 / 6.693642e-2
  CPU cores:         256 available, 8 Rayon worker thread(s)
  Started:           2026-06-24 02:37:12
  Finished:          2026-06-24 02:43:14
  Output file:       /work/e643/e643/shared/multi_ellip/studies/departing_sphericity_sweep/runs/triaxial/homogeneous/triaxial_homogeneous_eps1_rho1_E0p5_sep8_run10_impulse_noproj/multiple_body_complete.dat
================================================
