
================ Simulation setup ================
  Run label:         /work/e643/e643/shared/multi_ellip/studies/two_body_paper_sweeps/runs/spheroid_1_0p7_0p7/spheroid_1_0p7_0p7_rho0p3_E11_sep11_run04_impulse_noproj/
  Started:           2026-06-24 01:52:42
  Input file:        /work/e643/e643/shared/multi_ellip/studies/two_body_paper_sweeps/runs/spheroid_1_0p7_0p7/spheroid_1_0p7_0p7_rho0p3_E11_sep11_run04_impulse_noproj/input.txt
  Output file:       /work/e643/e643/shared/multi_ellip/studies/two_body_paper_sweeps/runs/spheroid_1_0p7_0p7/spheroid_1_0p7_0p7_rho0p3_E11_sep11_run04_impulse_noproj/multiple_body_complete.dat
  Bodies:            2
  Fluid density:     1
  Mesh:              ndiv 2 -> 256 triangles / 516 nodes
  Simulated time:    0 -> 100  (dt = 0.05, ~2000 steps)
  Output cadence:    every 1 step(s)
  Output rows:       ~2001
  Progress cadence:  every 100 step(s)
  CPU cores:         256 available, 8 Rayon worker thread(s)
  Strong coupling:   disabled
  Impulse scheme:    enabled
  Hamiltonian step:  disabled
  Hamiltonian midpt: disabled
  Variational step:  disabled
  Energy projection: disabled
  Projection particular metric: Euclidean
  Fluid KE gradient: disabled  (eps = 0.001, scale = 1, linear = 1, angular = 1)
  Fluid KE discrete gradient: disabled
  Impulse pair metric correction: disabled  (mode = pair discrete-gradient, cutoff = all pairs, inner/outer = 0/0, eps = 0.001, linear scale = 1, angular scale = 0)
  Impulse metric correction: disabled  (internal load constraint = disabled)
  Impulse variational defect probe: disabled
  Impulse quadratic pressure: disabled  (scale = 1)
  Added-mass stab:   disabled
  Exact BEM geometry: disabled
  Exact singular BEM: disabled
  Legacy singular SLP diagnostic: disabled
  Phi-dot blend:     0 (off)

  Solver guidance:
    - Strong coupling: use for stiff close-coupled runs; slower but more implicit.
    - Impulse scheme: use when impulse/momentum conservation or KE drift is the focus. Recommended.
    - Added-mass stab: use for higher mesh counts (ndiv > 3) to preserve stability - deprecated.
================================================
Solver starting - good luck!

Initial state:
  Body  1
    density:          0.300000
    shape axes ratio: (1.000000, 0.700000, 0.700000)
    initial KE ratio: 11.000000
    position:         (-5.500000, 0.000000, 0.000000)
    velocity:         (-0.061535, -1.021475, 0.376601)
    angular velocity: (5.969988, 1.935112, -0.304964)
    orientation:      (w=0.580634, i=0.154354, j=-0.252821, k=0.758367)
  Body  2
    density:          0.300000
    shape axes ratio: (1.000000, 0.700000, 0.700000)
    initial KE ratio: 11.000000
    position:         (5.500000, 0.000000, 0.000000)
    velocity:         (-0.070374, -1.168202, 0.430697)
    angular velocity: (3.331729, -5.114265, -1.490735)
    orientation:      (w=0.486008, i=-0.627333, j=-0.258022, k=-0.551066)

Preparing first step: implicit scheme, no bootstrap passes required.
First step may take longer than later steps.

First step completed in 0.339 s.

Step   100/2000    5.0% | t 5.000 | ETA 4m 45s | step 0.13s | KE 35.2858 | drift +0.00% | fluid 9.8185 | solid 25.4673
  Impulse FP iterations last/mean/max 10/10.59/11
Step   200/2000   10.0% | t 10.000 | ETA 4m 32s | step 0.14s | KE 35.2783 | drift -0.02% | fluid 9.8223 | solid 25.4560
  Impulse FP iterations last/mean/max 10/10.61/12
Step   300/2000   15.0% | t 15.000 | ETA 4m 18s | step 0.15s | KE 35.2881 | drift +0.01% | fluid 9.8276 | solid 25.4606
  Impulse FP iterations last/mean/max 11/10.67/12
Step   400/2000   20.0% | t 20.000 | ETA 4m 3s | step 0.16s | KE 35.3089 | drift +0.07% | fluid 9.8319 | solid 25.4771
  Impulse FP iterations last/mean/max 11/10.68/12
Step   500/2000   25.0% | t 25.000 | ETA 3m 48s | step 0.15s | KE 35.3239 | drift +0.11% | fluid 9.8323 | solid 25.4916
  Impulse FP iterations last/mean/max 11/10.68/12
Step   600/2000   30.0% | t 30.000 | ETA 3m 33s | step 0.15s | KE 35.3301 | drift +0.13% | fluid 9.8302 | solid 25.4999
  Impulse FP iterations last/mean/max 11/10.69/12
Step   700/2000   35.0% | t 35.000 | ETA 3m 17s | step 0.16s | KE 35.3304 | drift +0.13% | fluid 9.8280 | solid 25.5024
  Impulse FP iterations last/mean/max 11/10.66/12
Step   800/2000   40.0% | t 40.000 | ETA 3m 2s | step 0.15s | KE 35.3265 | drift +0.12% | fluid 9.8276 | solid 25.4989
  Impulse FP iterations last/mean/max 11/10.64/12
Step   900/2000   45.0% | t 45.000 | ETA 2m 46s | step 0.15s | KE 35.3198 | drift +0.10% | fluid 9.8292 | solid 25.4906
  Impulse FP iterations last/mean/max 10/10.62/12
Step  1000/2000   50.0% | t 50.000 | ETA 2m 31s | step 0.14s | KE 35.3138 | drift +0.08% | fluid 9.8319 | solid 25.4819
  Impulse FP iterations last/mean/max 10/10.61/12
Step  1100/2000   55.0% | t 55.000 | ETA 2m 16s | step 0.14s | KE 35.3111 | drift +0.07% | fluid 9.8344 | solid 25.4767
  Impulse FP iterations last/mean/max 10/10.59/12
Step  1200/2000   60.0% | t 60.000 | ETA 2m 0s | step 0.15s | KE 35.3103 | drift +0.07% | fluid 9.8350 | solid 25.4753
  Impulse FP iterations last/mean/max 10/10.59/12
Step  1300/2000   65.0% | t 65.000 | ETA 1m 45s | step 0.14s | KE 35.3085 | drift +0.07% | fluid 9.8328 | solid 25.4756
  Impulse FP iterations last/mean/max 10/10.57/12
Step  1400/2000   70.0% | t 70.000 | ETA 1m 30s | step 0.14s | KE 35.3043 | drift +0.05% | fluid 9.8283 | solid 25.4759
  Impulse FP iterations last/mean/max 10/10.56/12
Step  1500/2000   75.0% | t 75.000 | ETA 1m 15s | step 0.17s | KE 35.2991 | drift +0.04% | fluid 9.8235 | solid 25.4756
  Impulse FP iterations last/mean/max 11/10.55/12
Step  1600/2000   80.0% | t 80.000 | ETA 1m 0s | step 0.14s | KE 35.2960 | drift +0.03% | fluid 9.8209 | solid 25.4751
  Impulse FP iterations last/mean/max 11/10.54/12
Step  1700/2000   85.0% | t 85.000 | ETA 44s | step 0.12s | KE 35.2977 | drift +0.03% | fluid 9.8218 | solid 25.4758
  Impulse FP iterations last/mean/max 10/10.53/12
Step  1800/2000   90.0% | t 90.000 | ETA 29s | step 0.15s | KE 35.3038 | drift +0.05% | fluid 9.8258 | solid 25.4780
  Impulse FP iterations last/mean/max 11/10.53/12
Step  1900/2000   95.0% | t 95.000 | ETA 14s | step 0.13s | KE 35.3113 | drift +0.07% | fluid 9.8307 | solid 25.4806
  Impulse FP iterations last/mean/max 10/10.53/12
Solver finished successfully - good job!
Results saved successfully.

================== Run summary ==================
  Bodies:            2
  Triangles / nodes: 256 / 516
  Timesteps:         2000  (dt = 0.05)
  Simulated time:    0 -> 100
  First-step setup:  0.339 s
  Mean time/step:    0.1479 s  (excl. first step)
  Total wall time:   4m 55s
  Impulse FP iters last/mean/max: 11 / 10.530 / 12
  Approx impulse solves/step:     10.530
  Impulse start cache hits/direct: 1999 / 1
  Impulse global drift P/H:       3.616383e-8 / 1.226928e-2
  Impulse per-body max drift P/H: 5.734767e-8 / 3.545691e-3
  CPU cores:         256 available, 8 Rayon worker thread(s)
  Started:           2026-06-24 01:52:42
  Finished:          2026-06-24 01:57:38
  Output file:       /work/e643/e643/shared/multi_ellip/studies/two_body_paper_sweeps/runs/spheroid_1_0p7_0p7/spheroid_1_0p7_0p7_rho0p3_E11_sep11_run04_impulse_noproj/multiple_body_complete.dat
================================================
