
================ Simulation setup ================
  Run label:         /work/e643/e643/shared/multi_ellip/studies/departing_sphericity_sweep/runs/spheroid_prolate/homogeneous/spheroid_prolate_homogeneous_eps0p01_rho1_E0p5_sep8_run02_impulse_noproj/
  Started:           2026-06-24 02:26:39
  Input file:        /work/e643/e643/shared/multi_ellip/studies/departing_sphericity_sweep/runs/spheroid_prolate/homogeneous/spheroid_prolate_homogeneous_eps0p01_rho1_E0p5_sep8_run02_impulse_noproj/input.txt
  Output file:       /work/e643/e643/shared/multi_ellip/studies/departing_sphericity_sweep/runs/spheroid_prolate/homogeneous/spheroid_prolate_homogeneous_eps0p01_rho1_E0p5_sep8_run02_impulse_noproj/multiple_body_complete.dat
  Bodies:            2
  Fluid density:     1
  Mesh:              ndiv 2 -> 256 triangles / 516 nodes
  Simulated time:    0 -> 100  (dt = 0.05, ~2000 steps)
  Output cadence:    every 1 step(s)
  Output rows:       ~2001
  Progress cadence:  every 100 step(s)
  CPU cores:         256 available, 8 Rayon worker thread(s)
  Strong coupling:   disabled
  Impulse scheme:    enabled
  Hamiltonian step:  disabled
  Hamiltonian midpt: disabled
  Variational step:  disabled
  Energy projection: disabled
  Projection particular metric: Euclidean
  Fluid KE gradient: disabled  (eps = 0.001, scale = 1, linear = 1, angular = 1)
  Fluid KE discrete gradient: disabled
  Impulse pair metric correction: disabled  (mode = pair discrete-gradient, cutoff = all pairs, inner/outer = 0/0, eps = 0.001, linear scale = 1, angular scale = 0)
  Impulse metric correction: disabled  (internal load constraint = disabled)
  Impulse variational defect probe: disabled
  Impulse quadratic pressure: disabled  (scale = 1)
  Added-mass stab:   disabled
  Exact BEM geometry: disabled
  Exact singular BEM: disabled
  Legacy singular SLP diagnostic: disabled
  Phi-dot blend:     0 (off)

  Solver guidance:
    - Strong coupling: use for stiff close-coupled runs; slower but more implicit.
    - Impulse scheme: use when impulse/momentum conservation or KE drift is the focus. Recommended.
    - Added-mass stab: use for higher mesh counts (ndiv > 3) to preserve stability - deprecated.
================================================
Solver starting - good luck!

Initial state:
  Body  1
    density:          1.000000
    shape axes ratio: (1.000000, 0.970590, 0.970590)
    initial KE ratio: 0.500000
    position:         (-4.000000, 0.000000, 0.000000)
    velocity:         (-0.018894, -4.943679, 2.712103)
    angular velocity: (2.201839, 5.791849, 1.041541)
    orientation:      (w=-0.449789, i=-0.690601, j=0.322188, k=-0.465785)
  Body  2
    density:          1.000000
    shape axes ratio: (1.000000, 0.970590, 0.970590)
    initial KE ratio: 0.500000
    position:         (4.000000, 0.000000, 0.000000)
    velocity:         (-0.018925, -4.951847, 2.716585)
    angular velocity: (0.699227, -4.589587, 4.233815)
    orientation:      (w=-0.551852, i=0.423604, j=-0.094051, k=-0.712161)

Preparing first step: implicit scheme, no bootstrap passes required.
First step may take longer than later steps.

First step completed in 0.281 s.

Step   100/2000    5.0% | t 5.000 | ETA 3m 31s | step 0.11s | KE 271.4721 | drift -0.02% | fluid 72.3179 | solid 199.1542
  Impulse FP iterations last/mean/max 8/7.82/8
Step   200/2000   10.0% | t 10.000 | ETA 3m 21s | step 0.11s | KE 271.4730 | drift -0.02% | fluid 72.3916 | solid 199.0813
  Impulse FP iterations last/mean/max 8/7.87/8
Step   300/2000   15.0% | t 15.000 | ETA 3m 10s | step 0.11s | KE 271.5012 | drift -0.01% | fluid 72.4162 | solid 199.0850
  Impulse FP iterations last/mean/max 8/7.89/8
Step   400/2000   20.0% | t 20.000 | ETA 3m 0s | step 0.10s | KE 271.5379 | drift +0.00% | fluid 72.4065 | solid 199.1314
  Impulse FP iterations last/mean/max 7/7.91/8
Step   500/2000   25.0% | t 25.000 | ETA 2m 49s | step 0.11s | KE 271.4861 | drift -0.01% | fluid 72.4607 | solid 199.0254
  Impulse FP iterations last/mean/max 8/7.91/8
Step   600/2000   30.0% | t 30.000 | ETA 2m 37s | step 0.10s | KE 271.3246 | drift -0.07% | fluid 72.4679 | solid 198.8566
  Impulse FP iterations last/mean/max 8/7.91/8
Step   700/2000   35.0% | t 35.000 | ETA 2m 26s | step 0.10s | KE 271.1979 | drift -0.12% | fluid 72.3950 | solid 198.8029
  Impulse FP iterations last/mean/max 7/7.91/8
Step   800/2000   40.0% | t 40.000 | ETA 2m 15s | step 0.12s | KE 271.0793 | drift -0.16% | fluid 72.3895 | solid 198.6898
  Impulse FP iterations last/mean/max 8/7.91/8
Step   900/2000   45.0% | t 45.000 | ETA 2m 4s | step 0.11s | KE 270.8932 | drift -0.23% | fluid 72.4261 | solid 198.4672
  Impulse FP iterations last/mean/max 8/7.92/8
Step  1000/2000   50.0% | t 50.000 | ETA 1m 52s | step 0.11s | KE 270.8750 | drift -0.24% | fluid 72.3877 | solid 198.4873
  Impulse FP iterations last/mean/max 8/7.92/8
Step  1100/2000   55.0% | t 55.000 | ETA 1m 41s | step 0.11s | KE 271.1409 | drift -0.14% | fluid 72.3597 | solid 198.7813
  Impulse FP iterations last/mean/max 8/7.92/8
Step  1200/2000   60.0% | t 60.000 | ETA 1m 30s | step 0.12s | KE 271.4294 | drift -0.04% | fluid 72.3733 | solid 199.0562
  Impulse FP iterations last/mean/max 8/7.92/8
Step  1300/2000   65.0% | t 65.000 | ETA 1m 18s | step 0.12s | KE 271.6950 | drift +0.06% | fluid 72.2599 | solid 199.4351
  Impulse FP iterations last/mean/max 8/7.93/8
Step  1400/2000   70.0% | t 70.000 | ETA 1m 7s | step 0.11s | KE 272.0792 | drift +0.20% | fluid 72.0766 | solid 200.0026
  Impulse FP iterations last/mean/max 8/7.92/8
Step  1500/2000   75.0% | t 75.000 | ETA 56s | step 0.10s | KE 272.2806 | drift +0.28% | fluid 72.0513 | solid 200.2293
  Impulse FP iterations last/mean/max 8/7.93/8
Step  1600/2000   80.0% | t 80.000 | ETA 45s | step 0.12s | KE 272.0742 | drift +0.20% | fluid 72.1623 | solid 199.9119
  Impulse FP iterations last/mean/max 8/7.93/8
Step  1700/2000   85.0% | t 85.000 | ETA 33s | step 0.11s | KE 271.8090 | drift +0.10% | fluid 72.2663 | solid 199.5428
  Impulse FP iterations last/mean/max 8/7.93/8
Step  1800/2000   90.0% | t 90.000 | ETA 22s | step 0.09s | KE 271.5840 | drift +0.02% | fluid 72.3709 | solid 199.2131
  Impulse FP iterations last/mean/max 8/7.93/8
Step  1900/2000   95.0% | t 95.000 | ETA 11s | step 0.09s | KE 271.1585 | drift -0.14% | fluid 72.4455 | solid 198.7130
  Impulse FP iterations last/mean/max 8/7.93/8
Solver finished successfully - good job!
Results saved successfully.

================== Run summary ==================
  Bodies:            2
  Triangles / nodes: 256 / 516
  Timesteps:         2000  (dt = 0.05)
  Simulated time:    0 -> 100
  First-step setup:  0.281 s
  Mean time/step:    0.1089 s  (excl. first step)
  Total wall time:   3m 37s
  Impulse FP iters last/mean/max: 8 / 7.932 / 8
  Approx impulse solves/step:     7.933
  Impulse start cache hits/direct: 1999 / 1
  Impulse global drift P/H:       2.427722e-9 / 2.084179e-2
  Impulse per-body max drift P/H: 7.283610e-9 / 1.197966e-3
  CPU cores:         256 available, 8 Rayon worker thread(s)
  Started:           2026-06-24 02:26:39
  Finished:          2026-06-24 02:30:18
  Output file:       /work/e643/e643/shared/multi_ellip/studies/departing_sphericity_sweep/runs/spheroid_prolate/homogeneous/spheroid_prolate_homogeneous_eps0p01_rho1_E0p5_sep8_run02_impulse_noproj/multiple_body_complete.dat
================================================
