
================ Simulation setup ================
  Run label:         /work/e643/e643/shared/multi_ellip/studies/departing_sphericity_sweep/runs/triaxial/homogeneous/triaxial_homogeneous_eps0p003_rho1_E0p5_sep8_run07_impulse_noproj/
  Started:           2026-06-24 02:26:26
  Input file:        /work/e643/e643/shared/multi_ellip/studies/departing_sphericity_sweep/runs/triaxial/homogeneous/triaxial_homogeneous_eps0p003_rho1_E0p5_sep8_run07_impulse_noproj/input.txt
  Output file:       /work/e643/e643/shared/multi_ellip/studies/departing_sphericity_sweep/runs/triaxial/homogeneous/triaxial_homogeneous_eps0p003_rho1_E0p5_sep8_run07_impulse_noproj/multiple_body_complete.dat
  Bodies:            2
  Fluid density:     1
  Mesh:              ndiv 2 -> 256 triangles / 516 nodes
  Simulated time:    0 -> 100  (dt = 0.05, ~2000 steps)
  Output cadence:    every 1 step(s)
  Output rows:       ~2001
  Progress cadence:  every 100 step(s)
  CPU cores:         256 available, 8 Rayon worker thread(s)
  Strong coupling:   disabled
  Impulse scheme:    enabled
  Hamiltonian step:  disabled
  Hamiltonian midpt: disabled
  Variational step:  disabled
  Energy projection: disabled
  Projection particular metric: Euclidean
  Fluid KE gradient: disabled  (eps = 0.001, scale = 1, linear = 1, angular = 1)
  Fluid KE discrete gradient: disabled
  Impulse pair metric correction: disabled  (mode = pair discrete-gradient, cutoff = all pairs, inner/outer = 0/0, eps = 0.001, linear scale = 1, angular scale = 0)
  Impulse metric correction: disabled  (internal load constraint = disabled)
  Impulse variational defect probe: disabled
  Impulse quadratic pressure: disabled  (scale = 1)
  Added-mass stab:   disabled
  Exact BEM geometry: disabled
  Exact singular BEM: disabled
  Legacy singular SLP diagnostic: disabled
  Phi-dot blend:     0 (off)

  Solver guidance:
    - Strong coupling: use for stiff close-coupled runs; slower but more implicit.
    - Impulse scheme: use when impulse/momentum conservation or KE drift is the focus. Recommended.
    - Added-mass stab: use for higher mesh counts (ndiv > 3) to preserve stability - deprecated.
================================================
Solver starting - good luck!

Initial state:
  Body  1
    density:          1.000000
    shape axes ratio: (1.000000, 0.997009, 0.994027)
    initial KE ratio: 0.500000
    position:         (-4.000000, 0.000000, 0.000000)
    velocity:         (-0.147995, 1.314354, -5.454130)
    angular velocity: (6.138854, 0.137877, 1.331873)
    orientation:      (w=0.671783, i=0.625331, j=0.346336, k=-0.194215)
  Body  2
    density:          1.000000
    shape axes ratio: (1.000000, 0.997009, 0.994027)
    initial KE ratio: 0.500000
    position:         (4.000000, 0.000000, 0.000000)
    velocity:         (-0.148172, 1.315921, -5.460632)
    angular velocity: (4.665184, -0.712448, 4.148119)
    orientation:      (w=0.897524, i=-0.085367, j=-0.432622, k=-0.001384)

Preparing first step: implicit scheme, no bootstrap passes required.
First step may take longer than later steps.

First step completed in 0.250 s.

Step   100/2000    5.0% | t 5.000 | ETA 3m 27s | step 0.11s | KE 270.5750 | drift +0.03% | fluid 72.3599 | solid 198.2150
  Impulse FP iterations last/mean/max 8/7.90/8
Step   200/2000   10.0% | t 10.000 | ETA 3m 10s | step 0.10s | KE 270.6811 | drift +0.07% | fluid 72.3616 | solid 198.3195
  Impulse FP iterations last/mean/max 8/7.90/8
Step   300/2000   15.0% | t 15.000 | ETA 2m 56s | step 0.10s | KE 270.7588 | drift +0.10% | fluid 72.3643 | solid 198.3945
  Impulse FP iterations last/mean/max 8/7.92/8
Step   400/2000   20.0% | t 20.000 | ETA 2m 45s | step 0.10s | KE 270.7708 | drift +0.11% | fluid 72.3680 | solid 198.4028
  Impulse FP iterations last/mean/max 8/7.92/8
Step   500/2000   25.0% | t 25.000 | ETA 2m 37s | step 0.11s | KE 270.6895 | drift +0.08% | fluid 72.3723 | solid 198.3172
  Impulse FP iterations last/mean/max 8/7.94/8
Step   600/2000   30.0% | t 30.000 | ETA 2m 28s | step 0.11s | KE 270.4971 | drift +0.00% | fluid 72.3754 | solid 198.1217
  Impulse FP iterations last/mean/max 8/7.95/8
Step   700/2000   35.0% | t 35.000 | ETA 2m 19s | step 0.11s | KE 270.1867 | drift -0.11% | fluid 72.3744 | solid 197.8123
  Impulse FP iterations last/mean/max 8/7.95/8
Step   800/2000   40.0% | t 40.000 | ETA 2m 9s | step 0.12s | KE 269.7618 | drift -0.27% | fluid 72.3662 | solid 197.3956
  Impulse FP iterations last/mean/max 8/7.95/8
Step   900/2000   45.0% | t 45.000 | ETA 1m 58s | step 0.10s | KE 269.2350 | drift -0.46% | fluid 72.3539 | solid 196.8811
  Impulse FP iterations last/mean/max 7/7.94/8
Step  1000/2000   50.0% | t 50.000 | ETA 1m 48s | step 0.12s | KE 268.6270 | drift -0.69% | fluid 72.3478 | solid 196.2792
  Impulse FP iterations last/mean/max 8/7.94/8
Step  1100/2000   55.0% | t 55.000 | ETA 1m 37s | step 0.10s | KE 267.9690 | drift -0.93% | fluid 72.3348 | solid 195.6343
  Impulse FP iterations last/mean/max 8/7.94/8
Step  1200/2000   60.0% | t 60.000 | ETA 1m 27s | step 0.12s | KE 267.2966 | drift -1.18% | fluid 72.3238 | solid 194.9728
  Impulse FP iterations last/mean/max 8/7.95/8
Step  1300/2000   65.0% | t 65.000 | ETA 1m 16s | step 0.11s | KE 266.6364 | drift -1.42% | fluid 72.4041 | solid 194.2323
  Impulse FP iterations last/mean/max 8/7.95/8
Step  1400/2000   70.0% | t 70.000 | ETA 1m 5s | step 0.11s | KE 266.0376 | drift -1.64% | fluid 72.4067 | solid 193.6309
  Impulse FP iterations last/mean/max 8/7.95/8
Step  1500/2000   75.0% | t 75.000 | ETA 54s | step 0.11s | KE 265.5278 | drift -1.83% | fluid 72.3999 | solid 193.1280
  Impulse FP iterations last/mean/max 8/7.95/8
Step  1600/2000   80.0% | t 80.000 | ETA 43s | step 0.10s | KE 265.1447 | drift -1.97% | fluid 72.3479 | solid 192.7968
  Impulse FP iterations last/mean/max 8/7.95/8
Step  1700/2000   85.0% | t 85.000 | ETA 32s | step 0.12s | KE 264.8910 | drift -2.07% | fluid 72.3274 | solid 192.5636
  Impulse FP iterations last/mean/max 8/7.95/8
Step  1800/2000   90.0% | t 90.000 | ETA 21s | step 0.11s | KE 264.7737 | drift -2.11% | fluid 72.3775 | solid 192.3962
  Impulse FP iterations last/mean/max 8/7.95/8
Step  1900/2000   95.0% | t 95.000 | ETA 10s | step 0.10s | KE 264.8171 | drift -2.10% | fluid 72.3683 | solid 192.4487
  Impulse FP iterations last/mean/max 8/7.95/8
Solver finished successfully - good job!
Results saved successfully.

================== Run summary ==================
  Bodies:            2
  Triangles / nodes: 256 / 516
  Timesteps:         2000  (dt = 0.05)
  Simulated time:    0 -> 100
  First-step setup:  0.250 s
  Mean time/step:    0.1081 s  (excl. first step)
  Total wall time:   3m 36s
  Impulse FP iters last/mean/max: 8 / 7.955 / 8
  Approx impulse solves/step:     7.956
  Impulse start cache hits/direct: 1999 / 1
  Impulse global drift P/H:       3.396955e-9 / 8.955922e-3
  Impulse per-body max drift P/H: 5.863880e-9 / 1.202976e-3
  CPU cores:         256 available, 8 Rayon worker thread(s)
  Started:           2026-06-24 02:26:26
  Finished:          2026-06-24 02:30:03
  Output file:       /work/e643/e643/shared/multi_ellip/studies/departing_sphericity_sweep/runs/triaxial/homogeneous/triaxial_homogeneous_eps0p003_rho1_E0p5_sep8_run07_impulse_noproj/multiple_body_complete.dat
================================================
