
================ Simulation setup ================
  Run label:         /work/e643/e643/shared/multi_ellip/studies/two_body_paper_sweeps/runs/ellipsoid_1_0p8_0p6/ellipsoid_1_0p8_0p6_rho0p03_E0p2_sep3_run02_impulse_noproj/
  Started:           2026-06-22 20:03:25
  Input file:        /work/e643/e643/shared/multi_ellip/studies/two_body_paper_sweeps/runs/ellipsoid_1_0p8_0p6/ellipsoid_1_0p8_0p6_rho0p03_E0p2_sep3_run02_impulse_noproj/input.txt
  Output file:       /work/e643/e643/shared/multi_ellip/studies/two_body_paper_sweeps/runs/ellipsoid_1_0p8_0p6/ellipsoid_1_0p8_0p6_rho0p03_E0p2_sep3_run02_impulse_noproj/multiple_body_complete.dat
  Bodies:            2
  Fluid density:     1
  Mesh:              ndiv 2 -> 256 triangles / 516 nodes
  Simulated time:    0 -> 100  (dt = 0.05, ~2000 steps)
  Output cadence:    every 1 step(s)
  Output rows:       ~2001
  Progress cadence:  every 100 step(s)
  CPU cores:         256 available, 8 Rayon worker thread(s)
  Strong coupling:   disabled
  Impulse scheme:    enabled
  Hamiltonian step:  disabled
  Hamiltonian midpt: disabled
  Variational step:  disabled
  Energy projection: disabled
  Projection particular metric: Euclidean
  Fluid KE gradient: disabled  (eps = 0.001, scale = 1, linear = 1, angular = 1)
  Fluid KE discrete gradient: disabled
  Impulse pair metric correction: disabled  (mode = pair discrete-gradient, cutoff = all pairs, inner/outer = 0/0, eps = 0.001, linear scale = 1, angular scale = 0)
  Impulse metric correction: disabled  (internal load constraint = disabled)
  Impulse variational defect probe: disabled
  Impulse quadratic pressure: disabled  (scale = 1)
  Added-mass stab:   disabled
  Exact BEM geometry: disabled
  Exact singular BEM: disabled
  Legacy singular SLP diagnostic: disabled
  Phi-dot blend:     0 (off)

  Solver guidance:
    - Strong coupling: use for stiff close-coupled runs; slower but more implicit.
    - Impulse scheme: use when impulse/momentum conservation or KE drift is the focus. Recommended.
    - Added-mass stab: use for higher mesh counts (ndiv > 3) to preserve stability - deprecated.
================================================
Solver starting - good luck!

Initial state:
  Body  1
    density:          0.030000
    shape axes ratio: (1.000000, 0.800000, 0.600000)
    initial KE ratio: 0.200000
    position:         (-1.500000, 0.000000, 0.000000)
    velocity:         (4.993419, -4.786536, -6.345414)
    angular velocity: (3.746854, 2.496012, 4.382856)
    orientation:      (w=0.577350, i=0.577350, j=0.577350, k=0.000000)
  Body  2
    density:          0.030000
    shape axes ratio: (1.000000, 0.800000, 0.600000)
    initial KE ratio: 0.200000
    position:         (1.500000, 0.000000, 0.000000)
    velocity:         (4.394164, -4.212110, -5.583908)
    angular velocity: (-5.800800, -2.220421, 0.948086)
    orientation:      (w=0.577350, i=-0.577350, j=0.000000, k=0.577350)

Preparing first step: implicit scheme, no bootstrap passes required.
First step may take longer than later steps.

First step completed in 0.546 s.

Step   100/2000    5.0% | t 5.000 | ETA 12m 49s | step 0.43s | KE 292.8069 | drift +3.04% | fluid 279.8328 | solid 12.9741
  Impulse FP iterations last/mean/max 30/29.99/30
Step   200/2000   10.0% | t 10.000 | ETA 11m 59s | step 0.39s | KE 283.6888 | drift -0.17% | fluid 270.6272 | solid 13.0616
  Impulse FP iterations last/mean/max 30/30.00/30
Step   300/2000   15.0% | t 15.000 | ETA 11m 11s | step 0.34s | KE 284.6993 | drift +0.19% | fluid 270.8046 | solid 13.8948
  Impulse FP iterations last/mean/max 30/30.00/30
Step   400/2000   20.0% | t 20.000 | ETA 10m 23s | step 0.39s | KE 284.5686 | drift +0.14% | fluid 270.8839 | solid 13.6848
  Impulse FP iterations last/mean/max 30/30.00/30
Step   500/2000   25.0% | t 25.000 | ETA 9m 37s | step 0.37s | KE 283.8548 | drift -0.11% | fluid 270.1521 | solid 13.7027
  Impulse FP iterations last/mean/max 30/30.00/30
Step   600/2000   30.0% | t 30.000 | ETA 8m 55s | step 0.39s | KE 284.8280 | drift +0.23% | fluid 271.4088 | solid 13.4192
  Impulse FP iterations last/mean/max 30/30.00/30
Step   700/2000   35.0% | t 35.000 | ETA 8m 16s | step 0.40s | KE 284.2632 | drift +0.03% | fluid 270.8855 | solid 13.3777
  Impulse FP iterations last/mean/max 30/30.00/30
Step   800/2000   40.0% | t 40.000 | ETA 7m 35s | step 0.40s | KE 284.2451 | drift +0.03% | fluid 271.3843 | solid 12.8608
  Impulse FP iterations last/mean/max 30/30.00/30
Step   900/2000   45.0% | t 45.000 | ETA 6m 56s | step 0.41s | KE 285.4437 | drift +0.45% | fluid 272.8317 | solid 12.6120
  Impulse FP iterations last/mean/max 30/30.00/30
Step  1000/2000   50.0% | t 50.000 | ETA 6m 19s | step 0.38s | KE 283.8855 | drift -0.10% | fluid 270.5957 | solid 13.2898
  Impulse FP iterations last/mean/max 30/30.00/30
Step  1100/2000   55.0% | t 55.000 | ETA 5m 40s | step 0.36s | KE 284.3648 | drift +0.07% | fluid 270.4624 | solid 13.9024
  Impulse FP iterations last/mean/max 30/30.00/30
Step  1200/2000   60.0% | t 60.000 | ETA 5m 2s | step 0.36s | KE 284.1114 | drift -0.02% | fluid 269.9217 | solid 14.1897
  Impulse FP iterations last/mean/max 30/30.00/30
Step  1300/2000   65.0% | t 65.000 | ETA 4m 22s | step 0.31s | KE 283.2406 | drift -0.33% | fluid 270.1817 | solid 13.0589
  Impulse FP iterations last/mean/max 30/30.00/30
Step  1400/2000   70.0% | t 70.000 | ETA 3m 41s | step 0.29s | KE 284.6169 | drift +0.16% | fluid 272.0144 | solid 12.6025
  Impulse FP iterations last/mean/max 30/30.00/30
Step  1500/2000   75.0% | t 75.000 | ETA 3m 2s | step 0.29s | KE 283.8685 | drift -0.10% | fluid 270.3815 | solid 13.4870
  Impulse FP iterations last/mean/max 30/30.00/30
Step  1600/2000   80.0% | t 80.000 | ETA 2m 23s | step 0.29s | KE 283.9484 | drift -0.08% | fluid 270.6032 | solid 13.3452
  Impulse FP iterations last/mean/max 30/30.00/30
Step  1700/2000   85.0% | t 85.000 | ETA 1m 46s | step 0.28s | KE 285.5088 | drift +0.47% | fluid 272.6340 | solid 12.8748
  Impulse FP iterations last/mean/max 30/30.00/30
Step  1800/2000   90.0% | t 90.000 | ETA 1m 10s | step 0.29s | KE 284.4901 | drift +0.11% | fluid 271.6338 | solid 12.8563
  Impulse FP iterations last/mean/max 30/30.00/30
Step  1900/2000   95.0% | t 95.000 | ETA 34s | step 0.26s | KE 284.9331 | drift +0.27% | fluid 271.1257 | solid 13.8074
  Impulse FP iterations last/mean/max 30/30.00/30
Solver finished successfully - good job!
Results saved successfully.

================== Run summary ==================
  Bodies:            2
  Triangles / nodes: 256 / 516
  Timesteps:         2000  (dt = 0.05)
  Simulated time:    0 -> 100
  First-step setup:  0.546 s
  Mean time/step:    0.3443 s  (excl. first step)
  Total wall time:   11m 28s
  Impulse FP iters last/mean/max: 30 / 30.000 / 30
  Approx impulse solves/step:     30.000
  Impulse start cache hits/direct: 1999 / 1
  Impulse global drift P/H:       5.832497e-4 / 6.766768e-2
  Impulse per-body max drift P/H: 6.588255e-4 / 6.235221e-3
  CPU cores:         256 available, 8 Rayon worker thread(s)
  Started:           2026-06-22 20:03:25
  Finished:          2026-06-22 20:14:54
  Output file:       /work/e643/e643/shared/multi_ellip/studies/two_body_paper_sweeps/runs/ellipsoid_1_0p8_0p6/ellipsoid_1_0p8_0p6_rho0p03_E0p2_sep3_run02_impulse_noproj/multiple_body_complete.dat
================================================
