
================ Simulation setup ================
  Run label:         /work/e643/e643/shared/multi_ellip/studies/departing_sphericity_sweep/runs/triaxial/homogeneous/triaxial_homogeneous_eps0p0001_rho1_E0p5_sep8_run08_impulse_noproj/
  Started:           2026-06-24 02:23:18
  Input file:        /work/e643/e643/shared/multi_ellip/studies/departing_sphericity_sweep/runs/triaxial/homogeneous/triaxial_homogeneous_eps0p0001_rho1_E0p5_sep8_run08_impulse_noproj/input.txt
  Output file:       /work/e643/e643/shared/multi_ellip/studies/departing_sphericity_sweep/runs/triaxial/homogeneous/triaxial_homogeneous_eps0p0001_rho1_E0p5_sep8_run08_impulse_noproj/multiple_body_complete.dat
  Bodies:            2
  Fluid density:     1
  Mesh:              ndiv 2 -> 256 triangles / 516 nodes
  Simulated time:    0 -> 100  (dt = 0.05, ~2000 steps)
  Output cadence:    every 1 step(s)
  Output rows:       ~2001
  Progress cadence:  every 100 step(s)
  CPU cores:         256 available, 8 Rayon worker thread(s)
  Strong coupling:   disabled
  Impulse scheme:    enabled
  Hamiltonian step:  disabled
  Hamiltonian midpt: disabled
  Variational step:  disabled
  Energy projection: disabled
  Projection particular metric: Euclidean
  Fluid KE gradient: disabled  (eps = 0.001, scale = 1, linear = 1, angular = 1)
  Fluid KE discrete gradient: disabled
  Impulse pair metric correction: disabled  (mode = pair discrete-gradient, cutoff = all pairs, inner/outer = 0/0, eps = 0.001, linear scale = 1, angular scale = 0)
  Impulse metric correction: disabled  (internal load constraint = disabled)
  Impulse variational defect probe: disabled
  Impulse quadratic pressure: disabled  (scale = 1)
  Added-mass stab:   disabled
  Exact BEM geometry: disabled
  Exact singular BEM: disabled
  Legacy singular SLP diagnostic: disabled
  Phi-dot blend:     0 (off)

  Solver guidance:
    - Strong coupling: use for stiff close-coupled runs; slower but more implicit.
    - Impulse scheme: use when impulse/momentum conservation or KE drift is the focus. Recommended.
    - Added-mass stab: use for higher mesh counts (ndiv > 3) to preserve stability - deprecated.
================================================
Solver starting - good luck!

Initial state:
  Body  1
    density:          1.000000
    shape axes ratio: (1.000000, 0.999900, 0.999800)
    initial KE ratio: 0.500000
    position:         (-4.000000, 0.000000, 0.000000)
    velocity:         (-2.063240, -3.165513, 4.160173)
    angular velocity: (1.742852, 3.420364, -4.974133)
    orientation:      (w=0.162098, i=0.415032, j=0.594078, k=0.669734)
  Body  2
    density:          1.000000
    shape axes ratio: (1.000000, 0.999900, 0.999800)
    initial KE ratio: 0.500000
    position:         (4.000000, 0.000000, 0.000000)
    velocity:         (-2.063189, -3.165434, 4.160069)
    angular velocity: (-2.061424, -5.389290, -2.486865)
    orientation:      (w=-0.447370, i=-0.523045, j=0.549063, k=-0.474146)

Preparing first step: implicit scheme, no bootstrap passes required.
First step may take longer than later steps.

First step completed in 0.238 s.

Step   100/2000    5.0% | t 5.000 | ETA 2m 34s | step 0.08s | KE 278.5831 | drift +2.81% | fluid 72.5275 | solid 206.0556
  Impulse FP iterations last/mean/max 6/6.00/6
Step   200/2000   10.0% | t 10.000 | ETA 2m 29s | step 0.08s | KE 287.6971 | drift +6.17% | fluid 72.5254 | solid 215.1717
  Impulse FP iterations last/mean/max 6/6.00/6
Step   300/2000   15.0% | t 15.000 | ETA 2m 21s | step 0.09s | KE 298.3145 | drift +10.09% | fluid 72.5265 | solid 225.7880
  Impulse FP iterations last/mean/max 6/5.99/6
Step   400/2000   20.0% | t 20.000 | ETA 2m 13s | step 0.08s | KE 310.4368 | drift +14.56% | fluid 72.5255 | solid 237.9112
  Impulse FP iterations last/mean/max 6/6.00/6
Step   500/2000   25.0% | t 25.000 | ETA 2m 5s | step 0.09s | KE 324.0626 | drift +19.59% | fluid 72.5261 | solid 251.5365
  Impulse FP iterations last/mean/max 6/6.00/6
Step   600/2000   30.0% | t 30.000 | ETA 1m 57s | step 0.08s | KE 339.1933 | drift +25.18% | fluid 72.5248 | solid 266.6685
  Impulse FP iterations last/mean/max 6/6.00/6
Step   700/2000   35.0% | t 35.000 | ETA 1m 49s | step 0.08s | KE 355.8282 | drift +31.31% | fluid 72.5242 | solid 283.3040
  Impulse FP iterations last/mean/max 6/6.00/6
Step   800/2000   40.0% | t 40.000 | ETA 1m 40s | step 0.08s | KE 373.9670 | drift +38.01% | fluid 72.5260 | solid 301.4410
  Impulse FP iterations last/mean/max 6/6.00/6
Step   900/2000   45.0% | t 45.000 | ETA 1m 32s | step 0.08s | KE 393.6115 | drift +45.26% | fluid 72.5251 | solid 321.0864
  Impulse FP iterations last/mean/max 6/6.00/7
Step  1000/2000   50.0% | t 50.000 | ETA 1m 24s | step 0.08s | KE 414.7604 | drift +53.06% | fluid 72.5236 | solid 342.2368
  Impulse FP iterations last/mean/max 6/6.00/7
Step  1100/2000   55.0% | t 55.000 | ETA 1m 16s | step 0.10s | KE 437.4137 | drift +61.42% | fluid 72.5266 | solid 364.8871
  Impulse FP iterations last/mean/max 7/6.01/7
Step  1200/2000   60.0% | t 60.000 | ETA 1m 7s | step 0.09s | KE 461.5728 | drift +70.34% | fluid 72.5259 | solid 389.0470
  Impulse FP iterations last/mean/max 7/6.03/7
Step  1300/2000   65.0% | t 65.000 | ETA 59s | step 0.08s | KE 487.2376 | drift +79.81% | fluid 72.5250 | solid 414.7126
  Impulse FP iterations last/mean/max 6/6.04/7
Step  1400/2000   70.0% | t 70.000 | ETA 51s | step 0.09s | KE 514.4080 | drift +89.84% | fluid 72.5254 | solid 441.8826
  Impulse FP iterations last/mean/max 6/6.06/7
Step  1500/2000   75.0% | t 75.000 | ETA 42s | step 0.11s | KE 543.0844 | drift +100.42% | fluid 72.5274 | solid 470.5570
  Impulse FP iterations last/mean/max 7/6.08/7
Step  1600/2000   80.0% | t 80.000 | ETA 34s | step 0.10s | KE 573.2685 | drift +111.56% | fluid 72.5253 | solid 500.7432
  Impulse FP iterations last/mean/max 7/6.10/7
Step  1700/2000   85.0% | t 85.000 | ETA 25s | step 0.08s | KE 604.9590 | drift +123.25% | fluid 72.5251 | solid 532.4339
  Impulse FP iterations last/mean/max 6/6.13/7
Step  1800/2000   90.0% | t 90.000 | ETA 17s | step 0.07s | KE 638.1565 | drift +135.51% | fluid 72.5251 | solid 565.6313
  Impulse FP iterations last/mean/max 7/6.14/7
Step  1900/2000   95.0% | t 95.000 | ETA 8s | step 0.07s | KE 672.8619 | drift +148.31% | fluid 72.5238 | solid 600.3380
  Impulse FP iterations last/mean/max 7/6.17/7
Solver finished successfully - good job!
Results saved successfully.

================== Run summary ==================
  Bodies:            2
  Triangles / nodes: 256 / 516
  Timesteps:         2000  (dt = 0.05)
  Simulated time:    0 -> 100
  First-step setup:  0.238 s
  Mean time/step:    0.0841 s  (excl. first step)
  Total wall time:   2m 48s
  Impulse FP iters last/mean/max: 7 / 6.191 / 7
  Approx impulse solves/step:     6.192
  Impulse start cache hits/direct: 1999 / 1
  Impulse global drift P/H:       2.568455e-9 / 2.985929e-2
  Impulse per-body max drift P/H: 5.555986e-9 / 3.087950e-3
  CPU cores:         256 available, 8 Rayon worker thread(s)
  Started:           2026-06-24 02:23:18
  Finished:          2026-06-24 02:26:08
  Output file:       /work/e643/e643/shared/multi_ellip/studies/departing_sphericity_sweep/runs/triaxial/homogeneous/triaxial_homogeneous_eps0p0001_rho1_E0p5_sep8_run08_impulse_noproj/multiple_body_complete.dat
================================================
