
================ Simulation setup ================
  Run label:         /work/e643/e643/shared/multi_ellip/studies/departing_sphericity_sweep/runs/spheroid_prolate/homogeneous/spheroid_prolate_homogeneous_eps1_rho1_E0p5_sep8_run08_impulse_noproj/
  Started:           2026-06-24 02:36:39
  Input file:        /work/e643/e643/shared/multi_ellip/studies/departing_sphericity_sweep/runs/spheroid_prolate/homogeneous/spheroid_prolate_homogeneous_eps1_rho1_E0p5_sep8_run08_impulse_noproj/input.txt
  Output file:       /work/e643/e643/shared/multi_ellip/studies/departing_sphericity_sweep/runs/spheroid_prolate/homogeneous/spheroid_prolate_homogeneous_eps1_rho1_E0p5_sep8_run08_impulse_noproj/multiple_body_complete.dat
  Bodies:            2
  Fluid density:     1
  Mesh:              ndiv 2 -> 256 triangles / 516 nodes
  Simulated time:    0 -> 100  (dt = 0.05, ~2000 steps)
  Output cadence:    every 1 step(s)
  Output rows:       ~2001
  Progress cadence:  every 100 step(s)
  CPU cores:         256 available, 8 Rayon worker thread(s)
  Strong coupling:   disabled
  Impulse scheme:    enabled
  Hamiltonian step:  disabled
  Hamiltonian midpt: disabled
  Variational step:  disabled
  Energy projection: disabled
  Projection particular metric: Euclidean
  Fluid KE gradient: disabled  (eps = 0.001, scale = 1, linear = 1, angular = 1)
  Fluid KE discrete gradient: disabled
  Impulse pair metric correction: disabled  (mode = pair discrete-gradient, cutoff = all pairs, inner/outer = 0/0, eps = 0.001, linear scale = 1, angular scale = 0)
  Impulse metric correction: disabled  (internal load constraint = disabled)
  Impulse variational defect probe: disabled
  Impulse quadratic pressure: disabled  (scale = 1)
  Added-mass stab:   disabled
  Exact BEM geometry: disabled
  Exact singular BEM: disabled
  Legacy singular SLP diagnostic: disabled
  Phi-dot blend:     0 (off)

  Solver guidance:
    - Strong coupling: use for stiff close-coupled runs; slower but more implicit.
    - Impulse scheme: use when impulse/momentum conservation or KE drift is the focus. Recommended.
    - Added-mass stab: use for higher mesh counts (ndiv > 3) to preserve stability - deprecated.
================================================
Solver starting - good luck!

Initial state:
  Body  1
    density:          1.000000
    shape axes ratio: (1.000000, 0.125000, 0.125000)
    initial KE ratio: 0.500000
    position:         (-4.000000, 0.000000, 0.000000)
    velocity:         (-6.064534, -7.937392, 3.665180)
    angular velocity: (-4.770867, 3.304564, 2.407716)
    orientation:      (w=-0.334641, i=-0.332971, j=-0.731503, k=-0.491984)
  Body  2
    density:          1.000000
    shape axes ratio: (1.000000, 0.125000, 0.125000)
    initial KE ratio: 0.500000
    position:         (4.000000, 0.000000, 0.000000)
    velocity:         (-8.601408, -11.257709, 5.198373)
    angular velocity: (2.140553, 2.666835, 5.271095)
    orientation:      (w=-0.311774, i=-0.863012, j=-0.381404, k=-0.111978)

Preparing first step: implicit scheme, no bootstrap passes required.
First step may take longer than later steps.

First step completed in 0.270 s.

Step   100/2000    5.0% | t 5.000 | ETA 6m 15s | step 0.20s | KE 1577.1787 | drift -0.47% | fluid 690.4945 | solid 886.6841
  Impulse FP iterations last/mean/max 13/13.63/15
Step   200/2000   10.0% | t 10.000 | ETA 5m 57s | step 0.21s | KE 1579.9204 | drift -0.29% | fluid 635.8060 | solid 944.1145
  Impulse FP iterations last/mean/max 14/13.62/15
Step   300/2000   15.0% | t 15.000 | ETA 5m 38s | step 0.20s | KE 1583.2609 | drift -0.08% | fluid 550.0164 | solid 1033.2445
  Impulse FP iterations last/mean/max 14/13.64/15
Step   400/2000   20.0% | t 20.000 | ETA 5m 19s | step 0.18s | KE 1576.6263 | drift -0.50% | fluid 716.1362 | solid 860.4901
  Impulse FP iterations last/mean/max 13/13.63/15
Step   500/2000   25.0% | t 25.000 | ETA 5m 0s | step 0.21s | KE 1584.2697 | drift -0.02% | fluid 507.3543 | solid 1076.9154
  Impulse FP iterations last/mean/max 14/13.65/16
Step   600/2000   30.0% | t 30.000 | ETA 4m 40s | step 0.20s | KE 1579.1325 | drift -0.34% | fluid 656.1800 | solid 922.9526
  Impulse FP iterations last/mean/max 14/13.64/16
Step   700/2000   35.0% | t 35.000 | ETA 4m 20s | step 0.20s | KE 1581.8609 | drift -0.17% | fluid 596.1133 | solid 985.7476
  Impulse FP iterations last/mean/max 13/13.65/16
Step   800/2000   40.0% | t 40.000 | ETA 3m 58s | step 0.18s | KE 1583.8812 | drift -0.04% | fluid 539.7156 | solid 1044.1656
  Impulse FP iterations last/mean/max 15/13.65/16
Step   900/2000   45.0% | t 45.000 | ETA 3m 30s | step 0.12s | KE 1576.7410 | drift -0.49% | fluid 713.2162 | solid 863.5248
  Impulse FP iterations last/mean/max 13/13.66/16
Step  1000/2000   50.0% | t 50.000 | ETA 3m 4s | step 0.12s | KE 1583.5090 | drift -0.07% | fluid 521.4730 | solid 1062.0360
  Impulse FP iterations last/mean/max 14/13.66/16
Step  1100/2000   55.0% | t 55.000 | ETA 2m 40s | step 0.11s | KE 1577.2229 | drift -0.46% | fluid 694.9907 | solid 882.2322
  Impulse FP iterations last/mean/max 13/13.66/16
Step  1200/2000   60.0% | t 60.000 | ETA 2m 18s | step 0.12s | KE 1579.9144 | drift -0.29% | fluid 630.0077 | solid 949.9067
  Impulse FP iterations last/mean/max 14/13.66/16
Step  1300/2000   65.0% | t 65.000 | ETA 1m 58s | step 0.12s | KE 1580.8625 | drift -0.23% | fluid 595.3684 | solid 985.4941
  Impulse FP iterations last/mean/max 14/13.66/16
Step  1400/2000   70.0% | t 70.000 | ETA 1m 39s | step 0.10s | KE 1573.7673 | drift -0.68% | fluid 759.7620 | solid 814.0054
  Impulse FP iterations last/mean/max 12/13.66/16
Step  1500/2000   75.0% | t 75.000 | ETA 1m 21s | step 0.12s | KE 1580.3103 | drift -0.27% | fluid 565.1363 | solid 1015.1740
  Impulse FP iterations last/mean/max 14/13.67/16
Step  1600/2000   80.0% | t 80.000 | ETA 1m 3s | step 0.11s | KE 1573.7584 | drift -0.68% | fluid 737.1089 | solid 836.6495
  Impulse FP iterations last/mean/max 13/13.67/16
Step  1700/2000   85.0% | t 85.000 | ETA 47s | step 0.11s | KE 1577.3132 | drift -0.46% | fluid 641.2950 | solid 936.0181
  Impulse FP iterations last/mean/max 13/13.67/16
Step  1800/2000   90.0% | t 90.000 | ETA 30s | step 0.12s | KE 1578.0842 | drift -0.41% | fluid 604.1121 | solid 973.9721
  Impulse FP iterations last/mean/max 14/13.67/16
Step  1900/2000   95.0% | t 95.000 | ETA 15s | step 0.11s | KE 1571.8636 | drift -0.80% | fluid 738.8863 | solid 832.9773
  Impulse FP iterations last/mean/max 13/13.67/16
Solver finished successfully - good job!
Results saved successfully.

================== Run summary ==================
  Bodies:            2
  Triangles / nodes: 256 / 516
  Timesteps:         2000  (dt = 0.05)
  Simulated time:    0 -> 100
  First-step setup:  0.270 s
  Mean time/step:    0.1512 s  (excl. first step)
  Total wall time:   5m 2s
  Impulse FP iters last/mean/max: 14 / 13.671 / 16
  Approx impulse solves/step:     13.672
  Impulse start cache hits/direct: 1999 / 1
  Impulse global drift P/H:       1.989632e-9 / 3.741311e-3
  Impulse per-body max drift P/H: 3.977222e-9 / 2.551903e-3
  CPU cores:         256 available, 8 Rayon worker thread(s)
  Started:           2026-06-24 02:36:39
  Finished:          2026-06-24 02:41:42
  Output file:       /work/e643/e643/shared/multi_ellip/studies/departing_sphericity_sweep/runs/spheroid_prolate/homogeneous/spheroid_prolate_homogeneous_eps1_rho1_E0p5_sep8_run08_impulse_noproj/multiple_body_complete.dat
================================================
