
================ Simulation setup ================
  Run label:         /work/e643/e643/shared/multi_ellip/studies/departing_sphericity_sweep/runs/spheroid_prolate/homogeneous/spheroid_prolate_homogeneous_eps1_rho1_E0p5_sep8_run07_impulse_noproj/
  Started:           2026-06-24 02:36:39
  Input file:        /work/e643/e643/shared/multi_ellip/studies/departing_sphericity_sweep/runs/spheroid_prolate/homogeneous/spheroid_prolate_homogeneous_eps1_rho1_E0p5_sep8_run07_impulse_noproj/input.txt
  Output file:       /work/e643/e643/shared/multi_ellip/studies/departing_sphericity_sweep/runs/spheroid_prolate/homogeneous/spheroid_prolate_homogeneous_eps1_rho1_E0p5_sep8_run07_impulse_noproj/multiple_body_complete.dat
  Bodies:            2
  Fluid density:     1
  Mesh:              ndiv 2 -> 256 triangles / 516 nodes
  Simulated time:    0 -> 100  (dt = 0.05, ~2000 steps)
  Output cadence:    every 1 step(s)
  Output rows:       ~2001
  Progress cadence:  every 100 step(s)
  CPU cores:         256 available, 8 Rayon worker thread(s)
  Strong coupling:   disabled
  Impulse scheme:    enabled
  Hamiltonian step:  disabled
  Hamiltonian midpt: disabled
  Variational step:  disabled
  Energy projection: disabled
  Projection particular metric: Euclidean
  Fluid KE gradient: disabled  (eps = 0.001, scale = 1, linear = 1, angular = 1)
  Fluid KE discrete gradient: disabled
  Impulse pair metric correction: disabled  (mode = pair discrete-gradient, cutoff = all pairs, inner/outer = 0/0, eps = 0.001, linear scale = 1, angular scale = 0)
  Impulse metric correction: disabled  (internal load constraint = disabled)
  Impulse variational defect probe: disabled
  Impulse quadratic pressure: disabled  (scale = 1)
  Added-mass stab:   disabled
  Exact BEM geometry: disabled
  Exact singular BEM: disabled
  Legacy singular SLP diagnostic: disabled
  Phi-dot blend:     0 (off)

  Solver guidance:
    - Strong coupling: use for stiff close-coupled runs; slower but more implicit.
    - Impulse scheme: use when impulse/momentum conservation or KE drift is the focus. Recommended.
    - Added-mass stab: use for higher mesh counts (ndiv > 3) to preserve stability - deprecated.
================================================
Solver starting - good luck!

Initial state:
  Body  1
    density:          1.000000
    shape axes ratio: (1.000000, 0.125000, 0.125000)
    initial KE ratio: 0.500000
    position:         (-4.000000, 0.000000, 0.000000)
    velocity:         (1.356382, -1.225447, -3.277543)
    angular velocity: (-6.204529, 0.975762, 0.173573)
    orientation:      (w=0.871785, i=0.404189, j=0.253332, k=-0.111560)
  Body  2
    density:          1.000000
    shape axes ratio: (1.000000, 0.125000, 0.125000)
    initial KE ratio: 0.500000
    position:         (4.000000, 0.000000, 0.000000)
    velocity:         (1.571941, -1.420197, -3.798416)
    angular velocity: (-6.142408, -1.316004, 0.131821)
    orientation:      (w=0.062289, i=-0.187082, j=-0.980295, k=0.011902)

Preparing first step: implicit scheme, no bootstrap passes required.
First step may take longer than later steps.

First step completed in 0.253 s.

Step   100/2000    5.0% | t 5.000 | ETA 5m 35s | step 0.18s | KE 432.1118 | drift +0.15% | fluid 163.8354 | solid 268.2764
  Impulse FP iterations last/mean/max 12/12.24/13
Step   200/2000   10.0% | t 10.000 | ETA 5m 21s | step 0.18s | KE 432.2588 | drift +0.18% | fluid 154.9249 | solid 277.3339
  Impulse FP iterations last/mean/max 12/12.23/13
Step   300/2000   15.0% | t 15.000 | ETA 5m 4s | step 0.18s | KE 432.4904 | drift +0.24% | fluid 189.3498 | solid 243.1406
  Impulse FP iterations last/mean/max 12/12.22/13
Step   400/2000   20.0% | t 20.000 | ETA 4m 46s | step 0.18s | KE 432.5472 | drift +0.25% | fluid 161.1393 | solid 271.4079
  Impulse FP iterations last/mean/max 12/12.21/13
Step   500/2000   25.0% | t 25.000 | ETA 4m 28s | step 0.18s | KE 432.2244 | drift +0.18% | fluid 157.3810 | solid 274.8433
  Impulse FP iterations last/mean/max 12/12.21/13
Step   600/2000   30.0% | t 30.000 | ETA 4m 10s | step 0.18s | KE 432.4640 | drift +0.23% | fluid 189.3851 | solid 243.0789
  Impulse FP iterations last/mean/max 12/12.21/13
Step   700/2000   35.0% | t 35.000 | ETA 3m 53s | step 0.17s | KE 432.6160 | drift +0.27% | fluid 158.6718 | solid 273.9442
  Impulse FP iterations last/mean/max 12/12.21/13
Step   800/2000   40.0% | t 40.000 | ETA 3m 34s | step 0.17s | KE 432.1629 | drift +0.16% | fluid 159.8054 | solid 272.3575
  Impulse FP iterations last/mean/max 12/12.21/13
Step   900/2000   45.0% | t 45.000 | ETA 3m 15s | step 0.17s | KE 432.4483 | drift +0.23% | fluid 188.8590 | solid 243.5893
  Impulse FP iterations last/mean/max 12/12.21/14
Step  1000/2000   50.0% | t 50.000 | ETA 2m 52s | step 0.12s | KE 432.6876 | drift +0.28% | fluid 156.7121 | solid 275.9755
  Impulse FP iterations last/mean/max 12/12.21/14
Step  1100/2000   55.0% | t 55.000 | ETA 2m 30s | step 0.11s | KE 432.1066 | drift +0.15% | fluid 162.1887 | solid 269.9179
  Impulse FP iterations last/mean/max 12/12.22/14
Step  1200/2000   60.0% | t 60.000 | ETA 2m 10s | step 0.11s | KE 432.4419 | drift +0.23% | fluid 187.7772 | solid 244.6647
  Impulse FP iterations last/mean/max 12/12.22/15
Step  1300/2000   65.0% | t 65.000 | ETA 1m 51s | step 0.11s | KE 432.7503 | drift +0.30% | fluid 155.3261 | solid 277.4242
  Impulse FP iterations last/mean/max 12/12.22/15
Step  1400/2000   70.0% | t 70.000 | ETA 1m 33s | step 0.11s | KE 432.0528 | drift +0.14% | fluid 164.4967 | solid 267.5561
  Impulse FP iterations last/mean/max 12/12.22/15
Step  1500/2000   75.0% | t 75.000 | ETA 1m 16s | step 0.12s | KE 432.4376 | drift +0.23% | fluid 186.1931 | solid 246.2444
  Impulse FP iterations last/mean/max 12/12.22/15
Step  1600/2000   80.0% | t 80.000 | ETA 59s | step 0.11s | KE 432.8048 | drift +0.31% | fluid 154.4907 | solid 278.3141
  Impulse FP iterations last/mean/max 12/12.22/15
Step  1700/2000   85.0% | t 85.000 | ETA 44s | step 0.11s | KE 432.0062 | drift +0.13% | fluid 166.7162 | solid 265.2899
  Impulse FP iterations last/mean/max 12/12.22/15
Step  1800/2000   90.0% | t 90.000 | ETA 29s | step 0.11s | KE 432.4390 | drift +0.23% | fluid 184.1752 | solid 248.2638
  Impulse FP iterations last/mean/max 12/12.22/15
Step  1900/2000   95.0% | t 95.000 | ETA 14s | step 0.11s | KE 432.8506 | drift +0.32% | fluid 154.1608 | solid 278.6897
  Impulse FP iterations last/mean/max 12/12.22/15
Solver finished successfully - good job!
Results saved successfully.

================== Run summary ==================
  Bodies:            2
  Triangles / nodes: 256 / 516
  Timesteps:         2000  (dt = 0.05)
  Simulated time:    0 -> 100
  First-step setup:  0.253 s
  Mean time/step:    0.1418 s  (excl. first step)
  Total wall time:   4m 43s
  Impulse FP iters last/mean/max: 12 / 12.216 / 15
  Approx impulse solves/step:     12.216
  Impulse start cache hits/direct: 1999 / 1
  Impulse global drift P/H:       1.772125e-8 / 2.144524e-2
  Impulse per-body max drift P/H: 4.655404e-8 / 1.724691e-2
  CPU cores:         256 available, 8 Rayon worker thread(s)
  Started:           2026-06-24 02:36:39
  Finished:          2026-06-24 02:41:23
  Output file:       /work/e643/e643/shared/multi_ellip/studies/departing_sphericity_sweep/runs/spheroid_prolate/homogeneous/spheroid_prolate_homogeneous_eps1_rho1_E0p5_sep8_run07_impulse_noproj/multiple_body_complete.dat
================================================
