
================ Simulation setup ================
  Run label:         /work/e643/e643/shared/multi_ellip/studies/two_body_paper_sweeps/runs/spheroid_1_0p7_0p7/spheroid_1_0p7_0p7_rho1_E11_sep8_run02_impulse_noproj/
  Started:           2026-06-22 19:39:26
  Input file:        /work/e643/e643/shared/multi_ellip/studies/two_body_paper_sweeps/runs/spheroid_1_0p7_0p7/spheroid_1_0p7_0p7_rho1_E11_sep8_run02_impulse_noproj/input.txt
  Output file:       /work/e643/e643/shared/multi_ellip/studies/two_body_paper_sweeps/runs/spheroid_1_0p7_0p7/spheroid_1_0p7_0p7_rho1_E11_sep8_run02_impulse_noproj/multiple_body_complete.dat
  Bodies:            2
  Fluid density:     1
  Mesh:              ndiv 2 -> 256 triangles / 516 nodes
  Simulated time:    0 -> 100  (dt = 0.05, ~2000 steps)
  Output cadence:    every 1 step(s)
  Output rows:       ~2001
  Progress cadence:  every 100 step(s)
  CPU cores:         256 available, 8 Rayon worker thread(s)
  Strong coupling:   disabled
  Impulse scheme:    enabled
  Hamiltonian step:  disabled
  Hamiltonian midpt: disabled
  Variational step:  disabled
  Energy projection: disabled
  Projection particular metric: Euclidean
  Fluid KE gradient: disabled  (eps = 0.001, scale = 1, linear = 1, angular = 1)
  Fluid KE discrete gradient: disabled
  Impulse pair metric correction: disabled  (mode = pair discrete-gradient, cutoff = all pairs, inner/outer = 0/0, eps = 0.001, linear scale = 1, angular scale = 0)
  Impulse metric correction: disabled  (internal load constraint = disabled)
  Impulse variational defect probe: disabled
  Impulse quadratic pressure: disabled  (scale = 1)
  Added-mass stab:   disabled
  Exact BEM geometry: disabled
  Exact singular BEM: disabled
  Legacy singular SLP diagnostic: disabled
  Phi-dot blend:     0 (off)

  Solver guidance:
    - Strong coupling: use for stiff close-coupled runs; slower but more implicit.
    - Impulse scheme: use when impulse/momentum conservation or KE drift is the focus. Recommended.
    - Added-mass stab: use for higher mesh counts (ndiv > 3) to preserve stability - deprecated.
================================================
Solver starting - good luck!

Initial state:
  Body  1
    density:          1.000000
    shape axes ratio: (1.000000, 0.700000, 0.700000)
    initial KE ratio: 11.000000
    position:         (-4.000000, 0.000000, 0.000000)
    velocity:         (0.654908, 0.953232, -0.483066)
    angular velocity: (-3.169223, -4.956419, 2.206436)
    orientation:      (w=0.577350, i=0.577350, j=0.577350, k=0.000000)
  Body  2
    density:          1.000000
    shape axes ratio: (1.000000, 0.700000, 0.700000)
    initial KE ratio: 11.000000
    position:         (4.000000, 0.000000, 0.000000)
    velocity:         (0.669223, 0.974067, -0.493624)
    angular velocity: (-2.321792, 5.799959, 0.669461)
    orientation:      (w=0.577350, i=-0.577350, j=0.000000, k=0.577350)

Preparing first step: implicit scheme, no bootstrap passes required.
First step may take longer than later steps.

First step completed in 0.255 s.

Step   100/2000    5.0% | t 5.000 | ETA 4m 7s | step 0.13s | KE 77.5257 | drift -0.20% | fluid 6.0448 | solid 71.4809
  Impulse FP iterations last/mean/max 9/9.29/10
Step   200/2000   10.0% | t 10.000 | ETA 3m 56s | step 0.13s | KE 77.4573 | drift -0.29% | fluid 5.9430 | solid 71.5144
  Impulse FP iterations last/mean/max 9/9.27/10
Step   300/2000   15.0% | t 15.000 | ETA 3m 45s | step 0.13s | KE 77.3565 | drift -0.42% | fluid 6.1646 | solid 71.1919
  Impulse FP iterations last/mean/max 9/9.25/10
Step   400/2000   20.0% | t 20.000 | ETA 3m 31s | step 0.12s | KE 77.3089 | drift -0.48% | fluid 5.7142 | solid 71.5947
  Impulse FP iterations last/mean/max 9/9.25/10
Step   500/2000   25.0% | t 25.000 | ETA 3m 18s | step 0.15s | KE 77.2391 | drift -0.57% | fluid 6.0289 | solid 71.2101
  Impulse FP iterations last/mean/max 10/9.24/10
Step   600/2000   30.0% | t 30.000 | ETA 3m 4s | step 0.13s | KE 77.2030 | drift -0.62% | fluid 6.0272 | solid 71.1758
  Impulse FP iterations last/mean/max 9/9.25/10
Step   700/2000   35.0% | t 35.000 | ETA 2m 51s | step 0.13s | KE 77.1620 | drift -0.67% | fluid 5.9154 | solid 71.2466
  Impulse FP iterations last/mean/max 9/9.24/10
Step   800/2000   40.0% | t 40.000 | ETA 2m 37s | step 0.12s | KE 77.1335 | drift -0.71% | fluid 6.0465 | solid 71.0870
  Impulse FP iterations last/mean/max 9/9.25/10
Step   900/2000   45.0% | t 45.000 | ETA 2m 24s | step 0.13s | KE 77.1627 | drift -0.67% | fluid 5.8193 | solid 71.3433
  Impulse FP iterations last/mean/max 9/9.25/10
Step  1000/2000   50.0% | t 50.000 | ETA 2m 11s | step 0.14s | KE 77.1625 | drift -0.67% | fluid 6.1153 | solid 71.0472
  Impulse FP iterations last/mean/max 10/9.24/10
Step  1100/2000   55.0% | t 55.000 | ETA 1m 58s | step 0.12s | KE 77.2379 | drift -0.57% | fluid 5.8394 | solid 71.3985
  Impulse FP iterations last/mean/max 9/9.25/10
Step  1200/2000   60.0% | t 60.000 | ETA 1m 44s | step 0.13s | KE 77.2988 | drift -0.49% | fluid 6.1591 | solid 71.1397
  Impulse FP iterations last/mean/max 9/9.24/10
Step  1300/2000   65.0% | t 65.000 | ETA 1m 31s | step 0.12s | KE 77.4169 | drift -0.34% | fluid 5.9296 | solid 71.4874
  Impulse FP iterations last/mean/max 9/9.24/10
Step  1400/2000   70.0% | t 70.000 | ETA 1m 18s | step 0.15s | KE 77.5085 | drift -0.22% | fluid 5.9585 | solid 71.5499
  Impulse FP iterations last/mean/max 10/9.23/10
Step  1500/2000   75.0% | t 75.000 | ETA 1m 5s | step 0.12s | KE 77.6247 | drift -0.07% | fluid 5.9566 | solid 71.6681
  Impulse FP iterations last/mean/max 9/9.23/10
Step  1600/2000   80.0% | t 80.000 | ETA 52s | step 0.14s | KE 77.7188 | drift +0.05% | fluid 6.1422 | solid 71.5766
  Impulse FP iterations last/mean/max 10/9.22/10
Step  1700/2000   85.0% | t 85.000 | ETA 39s | step 0.13s | KE 77.8085 | drift +0.16% | fluid 6.0425 | solid 71.7660
  Impulse FP iterations last/mean/max 9/9.22/10
Step  1800/2000   90.0% | t 90.000 | ETA 26s | step 0.14s | KE 77.8748 | drift +0.25% | fluid 5.9483 | solid 71.9264
  Impulse FP iterations last/mean/max 10/9.22/10
Step  1900/2000   95.0% | t 95.000 | ETA 13s | step 0.12s | KE 77.9405 | drift +0.33% | fluid 5.9245 | solid 72.0161
  Impulse FP iterations last/mean/max 9/9.22/10
Solver finished successfully - good job!
Results saved successfully.

================== Run summary ==================
  Bodies:            2
  Triangles / nodes: 256 / 516
  Timesteps:         2000  (dt = 0.05)
  Simulated time:    0 -> 100
  First-step setup:  0.255 s
  Mean time/step:    0.1297 s  (excl. first step)
  Total wall time:   4m 19s
  Impulse FP iters last/mean/max: 10 / 9.215 / 10
  Approx impulse solves/step:     9.216
  Impulse start cache hits/direct: 1999 / 1
  Impulse global drift P/H:       5.605695e-8 / 1.716334e-2
  Impulse per-body max drift P/H: 9.662629e-8 / 6.217598e-3
  CPU cores:         256 available, 8 Rayon worker thread(s)
  Started:           2026-06-22 19:39:26
  Finished:          2026-06-22 19:43:45
  Output file:       /work/e643/e643/shared/multi_ellip/studies/two_body_paper_sweeps/runs/spheroid_1_0p7_0p7/spheroid_1_0p7_0p7_rho1_E11_sep8_run02_impulse_noproj/multiple_body_complete.dat
================================================
