
================ Simulation setup ================
  Run label:         /work/e643/e643/shared/multi_ellip/studies/two_body_paper_sweeps/runs/ellipsoid_1_0p8_0p6/ellipsoid_1_0p8_0p6_rho10_E4_sep3_run05_impulse_noproj/
  Started:           2026-06-24 01:21:16
  Input file:        /work/e643/e643/shared/multi_ellip/studies/two_body_paper_sweeps/runs/ellipsoid_1_0p8_0p6/ellipsoid_1_0p8_0p6_rho10_E4_sep3_run05_impulse_noproj/input.txt
  Output file:       /work/e643/e643/shared/multi_ellip/studies/two_body_paper_sweeps/runs/ellipsoid_1_0p8_0p6/ellipsoid_1_0p8_0p6_rho10_E4_sep3_run05_impulse_noproj/multiple_body_complete.dat
  Bodies:            2
  Fluid density:     1
  Mesh:              ndiv 2 -> 256 triangles / 516 nodes
  Simulated time:    0 -> 100  (dt = 0.05, ~2000 steps)
  Output cadence:    every 1 step(s)
  Output rows:       ~2001
  Progress cadence:  every 100 step(s)
  CPU cores:         256 available, 8 Rayon worker thread(s)
  Strong coupling:   disabled
  Impulse scheme:    enabled
  Hamiltonian step:  disabled
  Hamiltonian midpt: disabled
  Variational step:  disabled
  Energy projection: disabled
  Projection particular metric: Euclidean
  Fluid KE gradient: disabled  (eps = 0.001, scale = 1, linear = 1, angular = 1)
  Fluid KE discrete gradient: disabled
  Impulse pair metric correction: disabled  (mode = pair discrete-gradient, cutoff = all pairs, inner/outer = 0/0, eps = 0.001, linear scale = 1, angular scale = 0)
  Impulse metric correction: disabled  (internal load constraint = disabled)
  Impulse variational defect probe: disabled
  Impulse quadratic pressure: disabled  (scale = 1)
  Added-mass stab:   disabled
  Exact BEM geometry: disabled
  Exact singular BEM: disabled
  Legacy singular SLP diagnostic: disabled
  Phi-dot blend:     0 (off)

  Solver guidance:
    - Strong coupling: use for stiff close-coupled runs; slower but more implicit.
    - Impulse scheme: use when impulse/momentum conservation or KE drift is the focus. Recommended.
    - Added-mass stab: use for higher mesh counts (ndiv > 3) to preserve stability - deprecated.
================================================
Solver starting - good luck!

Initial state:
  Body  1
    density:          10.000000
    shape axes ratio: (1.000000, 0.800000, 0.600000)
    initial KE ratio: 4.000000
    position:         (-1.500000, 0.000000, 0.000000)
    velocity:         (1.769031, 0.969363, 0.463877)
    angular velocity: (3.094676, -4.661974, 2.857865)
    orientation:      (w=-0.720272, i=-0.106815, j=-0.087230, k=0.679845)
  Body  2
    density:          10.000000
    shape axes ratio: (1.000000, 0.800000, 0.600000)
    initial KE ratio: 4.000000
    position:         (1.500000, 0.000000, 0.000000)
    velocity:         (1.701677, 0.932455, 0.446216)
    angular velocity: (4.801257, 2.224331, -3.388023)
    orientation:      (w=-0.599009, i=0.642193, j=0.456094, k=0.144064)

Preparing first step: implicit scheme, no bootstrap passes required.
First step may take longer than later steps.

First step completed in 0.224 s.

Step   100/2000    5.0% | t 5.000 | ETA 2m 51s | step 0.10s | KE 912.1905 | drift -0.30% | fluid 22.4259 | solid 889.7646
  Impulse FP iterations last/mean/max 7/7.08/8
Step   200/2000   10.0% | t 10.000 | ETA 2m 58s | step 0.11s | KE 908.8820 | drift -0.66% | fluid 15.9993 | solid 892.8827
  Impulse FP iterations last/mean/max 8/7.21/8
Step   300/2000   15.0% | t 15.000 | ETA 3m 4s | step 0.13s | KE 927.6776 | drift +1.39% | fluid 18.1884 | solid 909.4892
  Impulse FP iterations last/mean/max 8/7.46/30
Step   400/2000   20.0% | t 20.000 | ETA 3m 3s | step 0.12s | KE 896.4134 | drift -2.02% | fluid 26.5612 | solid 869.8521
  Impulse FP iterations last/mean/max 8/7.68/30
Step   500/2000   25.0% | t 25.000 | ETA 2m 50s | step 0.10s | KE 911.6934 | drift -0.35% | fluid 14.5371 | solid 897.1563
  Impulse FP iterations last/mean/max 7/7.64/30
Step   600/2000   30.0% | t 30.000 | ETA 2m 37s | step 0.11s | KE 916.3898 | drift +0.16% | fluid 20.5812 | solid 895.8087
  Impulse FP iterations last/mean/max 8/7.57/30
Step   700/2000   35.0% | t 35.000 | ETA 2m 24s | step 0.09s | KE 919.4243 | drift +0.49% | fluid 20.2251 | solid 899.1992
  Impulse FP iterations last/mean/max 7/7.51/30
Step   800/2000   40.0% | t 40.000 | ETA 2m 12s | step 0.10s | KE 920.9120 | drift +0.65% | fluid 19.2045 | solid 901.7075
  Impulse FP iterations last/mean/max 7/7.46/30
Step   900/2000   45.0% | t 45.000 | ETA 2m 0s | step 0.10s | KE 921.7910 | drift +0.75% | fluid 16.8028 | solid 904.9882
  Impulse FP iterations last/mean/max 7/7.43/30
Step  1000/2000   50.0% | t 50.000 | ETA 1m 48s | step 0.11s | KE 922.3646 | drift +0.81% | fluid 12.8373 | solid 909.5273
  Impulse FP iterations last/mean/max 7/7.40/30
Step  1100/2000   55.0% | t 55.000 | ETA 1m 37s | step 0.09s | KE 922.7195 | drift +0.85% | fluid 17.5779 | solid 905.1416
  Impulse FP iterations last/mean/max 7/7.37/30
Step  1200/2000   60.0% | t 60.000 | ETA 1m 26s | step 0.10s | KE 922.9555 | drift +0.88% | fluid 19.9116 | solid 903.0439
  Impulse FP iterations last/mean/max 7/7.35/30
Step  1300/2000   65.0% | t 65.000 | ETA 1m 15s | step 0.10s | KE 923.1324 | drift +0.90% | fluid 21.4272 | solid 901.7052
  Impulse FP iterations last/mean/max 7/7.34/30
Step  1400/2000   70.0% | t 70.000 | ETA 1m 4s | step 0.12s | KE 923.2805 | drift +0.91% | fluid 24.5721 | solid 898.7083
  Impulse FP iterations last/mean/max 8/7.32/30
Step  1500/2000   75.0% | t 75.000 | ETA 53s | step 0.10s | KE 923.4360 | drift +0.93% | fluid 20.6352 | solid 902.8008
  Impulse FP iterations last/mean/max 7/7.31/30
Step  1600/2000   80.0% | t 80.000 | ETA 42s | step 0.10s | KE 923.5563 | drift +0.94% | fluid 16.1698 | solid 907.3864
  Impulse FP iterations last/mean/max 7/7.29/30
Step  1700/2000   85.0% | t 85.000 | ETA 31s | step 0.11s | KE 923.5878 | drift +0.95% | fluid 16.2303 | solid 907.3575
  Impulse FP iterations last/mean/max 8/7.28/30
Step  1800/2000   90.0% | t 90.000 | ETA 21s | step 0.09s | KE 923.6131 | drift +0.95% | fluid 17.9692 | solid 905.6439
  Impulse FP iterations last/mean/max 7/7.27/30
Step  1900/2000   95.0% | t 95.000 | ETA 10s | step 0.10s | KE 923.6365 | drift +0.95% | fluid 19.8714 | solid 903.7651
  Impulse FP iterations last/mean/max 7/7.26/30
Solver finished successfully - good job!
Results saved successfully.

================== Run summary ==================
  Bodies:            2
  Triangles / nodes: 256 / 516
  Timesteps:         2000  (dt = 0.05)
  Simulated time:    0 -> 100
  First-step setup:  0.224 s
  Mean time/step:    0.1043 s  (excl. first step)
  Total wall time:   3m 28s
  Impulse FP iters last/mean/max: 7 / 7.255 / 30
  Approx impulse solves/step:     7.256
  Impulse start cache hits/direct: 1999 / 1
  Impulse global drift P/H:       4.497871e-2 / 1.948813e0
  Impulse per-body max drift P/H: 7.650299e-2 / 2.704825e0
  CPU cores:         256 available, 8 Rayon worker thread(s)
  Started:           2026-06-24 01:21:16
  Finished:          2026-06-24 01:24:45
  Output file:       /work/e643/e643/shared/multi_ellip/studies/two_body_paper_sweeps/runs/ellipsoid_1_0p8_0p6/ellipsoid_1_0p8_0p6_rho10_E4_sep3_run05_impulse_noproj/multiple_body_complete.dat
================================================
