
================ Simulation setup ================
  Run label:         /work/e643/e643/shared/multi_ellip/studies/two_body_paper_sweeps/runs/ellipsoid_1_0p8_0p6/ellipsoid_1_0p8_0p6_rho4_E0p2_sep11_run05_impulse_noproj/
  Started:           2026-06-24 01:24:56
  Input file:        /work/e643/e643/shared/multi_ellip/studies/two_body_paper_sweeps/runs/ellipsoid_1_0p8_0p6/ellipsoid_1_0p8_0p6_rho4_E0p2_sep11_run05_impulse_noproj/input.txt
  Output file:       /work/e643/e643/shared/multi_ellip/studies/two_body_paper_sweeps/runs/ellipsoid_1_0p8_0p6/ellipsoid_1_0p8_0p6_rho4_E0p2_sep11_run05_impulse_noproj/multiple_body_complete.dat
  Bodies:            2
  Fluid density:     1
  Mesh:              ndiv 2 -> 256 triangles / 516 nodes
  Simulated time:    0 -> 100  (dt = 0.05, ~2000 steps)
  Output cadence:    every 1 step(s)
  Output rows:       ~2001
  Progress cadence:  every 100 step(s)
  CPU cores:         256 available, 8 Rayon worker thread(s)
  Strong coupling:   disabled
  Impulse scheme:    enabled
  Hamiltonian step:  disabled
  Hamiltonian midpt: disabled
  Variational step:  disabled
  Energy projection: disabled
  Projection particular metric: Euclidean
  Fluid KE gradient: disabled  (eps = 0.001, scale = 1, linear = 1, angular = 1)
  Fluid KE discrete gradient: disabled
  Impulse pair metric correction: disabled  (mode = pair discrete-gradient, cutoff = all pairs, inner/outer = 0/0, eps = 0.001, linear scale = 1, angular scale = 0)
  Impulse metric correction: disabled  (internal load constraint = disabled)
  Impulse variational defect probe: disabled
  Impulse quadratic pressure: disabled  (scale = 1)
  Added-mass stab:   disabled
  Exact BEM geometry: disabled
  Exact singular BEM: disabled
  Legacy singular SLP diagnostic: disabled
  Phi-dot blend:     0 (off)

  Solver guidance:
    - Strong coupling: use for stiff close-coupled runs; slower but more implicit.
    - Impulse scheme: use when impulse/momentum conservation or KE drift is the focus. Recommended.
    - Added-mass stab: use for higher mesh counts (ndiv > 3) to preserve stability - deprecated.
================================================
Solver starting - good luck!

Initial state:
  Body  1
    density:          4.000000
    shape axes ratio: (1.000000, 0.800000, 0.600000)
    initial KE ratio: 0.200000
    position:         (-5.500000, 0.000000, 0.000000)
    velocity:         (-3.819976, -7.084715, -2.486492)
    angular velocity: (-5.375281, 3.131570, -0.882065)
    orientation:      (w=0.369007, i=-0.191131, j=-0.889137, k=-0.191672)
  Body  2
    density:          4.000000
    shape axes ratio: (1.000000, 0.800000, 0.600000)
    initial KE ratio: 0.200000
    position:         (5.500000, 0.000000, 0.000000)
    velocity:         (-4.659865, -8.642415, -3.033191)
    angular velocity: (0.015170, 0.103689, 6.282311)
    orientation:      (w=-0.703482, i=-0.683070, j=-0.194306, k=-0.027824)

Preparing first step: implicit scheme, no bootstrap passes required.
First step may take longer than later steps.

First step completed in 0.298 s.

Step   100/2000    5.0% | t 5.000 | ETA 3m 56s | step 0.12s | KE 1996.0719 | drift -0.06% | fluid 209.0351 | solid 1787.0367
  Impulse FP iterations last/mean/max 9/8.93/10
Step   200/2000   10.0% | t 10.000 | ETA 3m 45s | step 0.14s | KE 1995.3317 | drift -0.10% | fluid 249.2495 | solid 1746.0822
  Impulse FP iterations last/mean/max 9/8.93/10
Step   300/2000   15.0% | t 15.000 | ETA 3m 33s | step 0.12s | KE 1995.5873 | drift -0.08% | fluid 219.3274 | solid 1776.2599
  Impulse FP iterations last/mean/max 9/8.93/10
Step   400/2000   20.0% | t 20.000 | ETA 3m 21s | step 0.14s | KE 1993.7929 | drift -0.17% | fluid 266.9500 | solid 1726.8430
  Impulse FP iterations last/mean/max 9/8.92/10
Step   500/2000   25.0% | t 25.000 | ETA 3m 9s | step 0.13s | KE 1994.3304 | drift -0.15% | fluid 254.7911 | solid 1739.5393
  Impulse FP iterations last/mean/max 9/8.93/10
Step   600/2000   30.0% | t 30.000 | ETA 2m 57s | step 0.14s | KE 1996.0244 | drift -0.06% | fluid 210.0617 | solid 1785.9627
  Impulse FP iterations last/mean/max 9/8.94/10
Step   700/2000   35.0% | t 35.000 | ETA 2m 44s | step 0.13s | KE 1996.2257 | drift -0.05% | fluid 219.9794 | solid 1776.2462
  Impulse FP iterations last/mean/max 9/8.93/10
Step   800/2000   40.0% | t 40.000 | ETA 2m 31s | step 0.14s | KE 1995.2306 | drift -0.10% | fluid 207.4984 | solid 1787.7322
  Impulse FP iterations last/mean/max 9/8.93/10
Step   900/2000   45.0% | t 45.000 | ETA 2m 19s | step 0.13s | KE 1995.7901 | drift -0.07% | fluid 224.7001 | solid 1771.0900
  Impulse FP iterations last/mean/max 9/8.93/10
Step  1000/2000   50.0% | t 50.000 | ETA 2m 6s | step 0.12s | KE 1997.2449 | drift -0.00% | fluid 156.8189 | solid 1840.4260
  Impulse FP iterations last/mean/max 8/8.93/10
Step  1100/2000   55.0% | t 55.000 | ETA 1m 53s | step 0.12s | KE 1996.3997 | drift -0.04% | fluid 213.9111 | solid 1782.4886
  Impulse FP iterations last/mean/max 9/8.93/10
Step  1200/2000   60.0% | t 60.000 | ETA 1m 41s | step 0.13s | KE 1996.3235 | drift -0.05% | fluid 201.7544 | solid 1794.5690
  Impulse FP iterations last/mean/max 9/8.93/10
Step  1300/2000   65.0% | t 65.000 | ETA 1m 28s | step 0.11s | KE 1996.5832 | drift -0.03% | fluid 197.8816 | solid 1798.7016
  Impulse FP iterations last/mean/max 8/8.93/10
Step  1400/2000   70.0% | t 70.000 | ETA 1m 16s | step 0.12s | KE 1997.3551 | drift +0.01% | fluid 183.7722 | solid 1813.5830
  Impulse FP iterations last/mean/max 9/8.93/10
Step  1500/2000   75.0% | t 75.000 | ETA 1m 3s | step 0.12s | KE 1996.7238 | drift -0.03% | fluid 216.2353 | solid 1780.4884
  Impulse FP iterations last/mean/max 9/8.93/10
Step  1600/2000   80.0% | t 80.000 | ETA 50s | step 0.12s | KE 1996.0973 | drift -0.06% | fluid 204.4822 | solid 1791.6150
  Impulse FP iterations last/mean/max 9/8.93/10
Step  1700/2000   85.0% | t 85.000 | ETA 37s | step 0.10s | KE 1995.5562 | drift -0.09% | fluid 232.8097 | solid 1762.7465
  Impulse FP iterations last/mean/max 9/8.93/10
Step  1800/2000   90.0% | t 90.000 | ETA 24s | step 0.10s | KE 1997.5525 | drift +0.01% | fluid 173.6640 | solid 1823.8885
  Impulse FP iterations last/mean/max 9/8.93/10
Step  1900/2000   95.0% | t 95.000 | ETA 12s | step 0.09s | KE 1996.9692 | drift -0.01% | fluid 185.5644 | solid 1811.4048
  Impulse FP iterations last/mean/max 8/8.93/10
Solver finished successfully - good job!
Results saved successfully.

================== Run summary ==================
  Bodies:            2
  Triangles / nodes: 256 / 516
  Timesteps:         2000  (dt = 0.05)
  Simulated time:    0 -> 100
  First-step setup:  0.298 s
  Mean time/step:    0.1224 s  (excl. first step)
  Total wall time:   4m 4s
  Impulse FP iters last/mean/max: 8 / 8.927 / 10
  Approx impulse solves/step:     8.928
  Impulse start cache hits/direct: 1999 / 1
  Impulse global drift P/H:       4.056741e-9 / 3.050410e-3
  Impulse per-body max drift P/H: 4.587399e-9 / 8.306189e-4
  CPU cores:         256 available, 8 Rayon worker thread(s)
  Started:           2026-06-24 01:24:56
  Finished:          2026-06-24 01:29:01
  Output file:       /work/e643/e643/shared/multi_ellip/studies/two_body_paper_sweeps/runs/ellipsoid_1_0p8_0p6/ellipsoid_1_0p8_0p6_rho4_E0p2_sep11_run05_impulse_noproj/multiple_body_complete.dat
================================================
