
================ Simulation setup ================
  Run label:         /work/e643/e643/shared/multi_ellip/studies/departing_sphericity_sweep/runs/spheroid_oblate/homogeneous/spheroid_oblate_homogeneous_eps0p0003_rho1_E0p5_sep8_run08_impulse_noproj/
  Started:           2026-06-24 02:23:12
  Input file:        /work/e643/e643/shared/multi_ellip/studies/departing_sphericity_sweep/runs/spheroid_oblate/homogeneous/spheroid_oblate_homogeneous_eps0p0003_rho1_E0p5_sep8_run08_impulse_noproj/input.txt
  Output file:       /work/e643/e643/shared/multi_ellip/studies/departing_sphericity_sweep/runs/spheroid_oblate/homogeneous/spheroid_oblate_homogeneous_eps0p0003_rho1_E0p5_sep8_run08_impulse_noproj/multiple_body_complete.dat
  Bodies:            2
  Fluid density:     1
  Mesh:              ndiv 2 -> 256 triangles / 516 nodes
  Simulated time:    0 -> 100  (dt = 0.05, ~2000 steps)
  Output cadence:    every 1 step(s)
  Output rows:       ~2001
  Progress cadence:  every 100 step(s)
  CPU cores:         256 available, 8 Rayon worker thread(s)
  Strong coupling:   disabled
  Impulse scheme:    enabled
  Hamiltonian step:  disabled
  Hamiltonian midpt: disabled
  Variational step:  disabled
  Energy projection: disabled
  Projection particular metric: Euclidean
  Fluid KE gradient: disabled  (eps = 0.001, scale = 1, linear = 1, angular = 1)
  Fluid KE discrete gradient: disabled
  Impulse pair metric correction: disabled  (mode = pair discrete-gradient, cutoff = all pairs, inner/outer = 0/0, eps = 0.001, linear scale = 1, angular scale = 0)
  Impulse metric correction: disabled  (internal load constraint = disabled)
  Impulse variational defect probe: disabled
  Impulse quadratic pressure: disabled  (scale = 1)
  Added-mass stab:   disabled
  Exact BEM geometry: disabled
  Exact singular BEM: disabled
  Legacy singular SLP diagnostic: disabled
  Phi-dot blend:     0 (off)

  Solver guidance:
    - Strong coupling: use for stiff close-coupled runs; slower but more implicit.
    - Impulse scheme: use when impulse/momentum conservation or KE drift is the focus. Recommended.
    - Added-mass stab: use for higher mesh counts (ndiv > 3) to preserve stability - deprecated.
================================================
Solver starting - good luck!

Initial state:
  Body  1
    density:          1.000000
    shape axes ratio: (1.000000, 1.000000, 0.999101)
    initial KE ratio: 0.500000
    position:         (-4.000000, 0.000000, 0.000000)
    velocity:         (3.761734, 2.684455, 3.196316)
    angular velocity: (-1.070676, -6.180440, 0.366383)
    orientation:      (w=0.045752, i=-0.595576, j=-0.164653, k=0.784911)
  Body  2
    density:          1.000000
    shape axes ratio: (1.000000, 1.000000, 0.999101)
    initial KE ratio: 0.500000
    position:         (4.000000, 0.000000, 0.000000)
    velocity:         (3.761857, 2.684543, 3.196421)
    angular velocity: (-5.668417, 2.081442, -1.736394)
    orientation:      (w=0.650077, i=-0.127514, j=-0.748577, k=-0.027803)

Preparing first step: implicit scheme, no bootstrap passes required.
First step may take longer than later steps.

First step completed in 3.715 s.

Step   100/2000    5.0% | t 5.000 | ETA 2m 54s | step 0.09s | KE 268.4932 | drift -0.82% | fluid 72.2972 | solid 196.1961
  Impulse FP iterations last/mean/max 7/6.99/7
Step   200/2000   10.0% | t 10.000 | ETA 2m 44s | step 0.09s | KE 269.2368 | drift -0.55% | fluid 72.2976 | solid 196.9392
  Impulse FP iterations last/mean/max 7/6.93/7
Step   300/2000   15.0% | t 15.000 | ETA 2m 34s | step 0.09s | KE 272.9741 | drift +0.83% | fluid 72.2968 | solid 200.6773
  Impulse FP iterations last/mean/max 7/6.86/7
Step   400/2000   20.0% | t 20.000 | ETA 2m 23s | step 0.08s | KE 279.7244 | drift +3.33% | fluid 72.2917 | solid 207.4326
  Impulse FP iterations last/mean/max 6/6.77/7
Step   500/2000   25.0% | t 25.000 | ETA 2m 13s | step 0.09s | KE 289.4978 | drift +6.94% | fluid 72.2960 | solid 217.2018
  Impulse FP iterations last/mean/max 7/6.71/7
Step   600/2000   30.0% | t 30.000 | ETA 2m 4s | step 0.08s | KE 302.3063 | drift +11.67% | fluid 72.2980 | solid 230.0082
  Impulse FP iterations last/mean/max 7/6.68/7
Step   700/2000   35.0% | t 35.000 | ETA 1m 55s | step 0.10s | KE 318.1613 | drift +17.52% | fluid 72.3013 | solid 245.8600
  Impulse FP iterations last/mean/max 7/6.67/7
Step   800/2000   40.0% | t 40.000 | ETA 1m 46s | step 0.07s | KE 337.0733 | drift +24.51% | fluid 72.2928 | solid 264.7805
  Impulse FP iterations last/mean/max 6/6.67/7
Step   900/2000   45.0% | t 45.000 | ETA 1m 37s | step 0.09s | KE 359.0515 | drift +32.63% | fluid 72.2932 | solid 286.7583
  Impulse FP iterations last/mean/max 7/6.68/7
Step  1000/2000   50.0% | t 50.000 | ETA 1m 29s | step 0.09s | KE 384.0989 | drift +41.88% | fluid 72.3071 | solid 311.7918
  Impulse FP iterations last/mean/max 7/6.71/7
Step  1100/2000   55.0% | t 55.000 | ETA 1m 20s | step 0.10s | KE 412.2158 | drift +52.27% | fluid 72.3068 | solid 339.9091
  Impulse FP iterations last/mean/max 7/6.74/7
Step  1200/2000   60.0% | t 60.000 | ETA 1m 11s | step 0.09s | KE 443.4003 | drift +63.78% | fluid 72.2897 | solid 371.1106
  Impulse FP iterations last/mean/max 7/6.76/7
Step  1300/2000   65.0% | t 65.000 | ETA 1m 2s | step 0.08s | KE 477.6404 | drift +76.43% | fluid 72.3061 | solid 405.3343
  Impulse FP iterations last/mean/max 7/6.78/8
Step  1400/2000   70.0% | t 70.000 | ETA 53s | step 0.08s | KE 514.9333 | drift +90.21% | fluid 72.3045 | solid 442.6288
  Impulse FP iterations last/mean/max 7/6.81/8
Step  1500/2000   75.0% | t 75.000 | ETA 44s | step 0.07s | KE 555.2695 | drift +105.11% | fluid 72.2937 | solid 482.9758
  Impulse FP iterations last/mean/max 7/6.84/8
Step  1600/2000   80.0% | t 80.000 | ETA 35s | step 0.08s | KE 598.6329 | drift +121.12% | fluid 72.2911 | solid 526.3418
  Impulse FP iterations last/mean/max 8/6.88/8
Step  1700/2000   85.0% | t 85.000 | ETA 26s | step 0.08s | KE 645.0081 | drift +138.25% | fluid 72.2973 | solid 572.7108
  Impulse FP iterations last/mean/max 7/6.91/8
Step  1800/2000   90.0% | t 90.000 | ETA 17s | step 0.09s | KE 694.3936 | drift +156.50% | fluid 72.2907 | solid 622.1028
  Impulse FP iterations last/mean/max 8/6.95/8
Step  1900/2000   95.0% | t 95.000 | ETA 8s | step 0.07s | KE 746.7567 | drift +175.84% | fluid 72.3060 | solid 674.4507
  Impulse FP iterations last/mean/max 8/6.99/8
Solver finished successfully - good job!
Results saved successfully.

================== Run summary ==================
  Bodies:            2
  Triangles / nodes: 256 / 516
  Timesteps:         2000  (dt = 0.05)
  Simulated time:    0 -> 100
  First-step setup:  3.715 s
  Mean time/step:    0.0860 s  (excl. first step)
  Total wall time:   2m 55s
  Impulse FP iters last/mean/max: 8 / 7.021 / 8
  Approx impulse solves/step:     7.022
  Impulse start cache hits/direct: 1999 / 1
  Impulse global drift P/H:       2.795028e-9 / 6.774774e-2
  Impulse per-body max drift P/H: 6.063949e-9 / 7.357956e-3
  CPU cores:         256 available, 8 Rayon worker thread(s)
  Started:           2026-06-24 02:23:12
  Finished:          2026-06-24 02:26:09
  Output file:       /work/e643/e643/shared/multi_ellip/studies/departing_sphericity_sweep/runs/spheroid_oblate/homogeneous/spheroid_oblate_homogeneous_eps0p0003_rho1_E0p5_sep8_run08_impulse_noproj/multiple_body_complete.dat
================================================
