
================ Simulation setup ================
  Run label:         /work/e643/e643/shared/multi_ellip/studies/two_body_paper_sweeps/runs/ellipsoid_1_0p8_0p6/ellipsoid_1_0p8_0p6_rho10_E1p5_sep3_run04_impulse_noproj/
  Started:           2026-06-24 01:17:40
  Input file:        /work/e643/e643/shared/multi_ellip/studies/two_body_paper_sweeps/runs/ellipsoid_1_0p8_0p6/ellipsoid_1_0p8_0p6_rho10_E1p5_sep3_run04_impulse_noproj/input.txt
  Output file:       /work/e643/e643/shared/multi_ellip/studies/two_body_paper_sweeps/runs/ellipsoid_1_0p8_0p6/ellipsoid_1_0p8_0p6_rho10_E1p5_sep3_run04_impulse_noproj/multiple_body_complete.dat
  Bodies:            2
  Fluid density:     1
  Mesh:              ndiv 2 -> 256 triangles / 516 nodes
  Simulated time:    0 -> 100  (dt = 0.05, ~2000 steps)
  Output cadence:    every 1 step(s)
  Output rows:       ~2001
  Progress cadence:  every 100 step(s)
  CPU cores:         256 available, 8 Rayon worker thread(s)
  Strong coupling:   disabled
  Impulse scheme:    enabled
  Hamiltonian step:  disabled
  Hamiltonian midpt: disabled
  Variational step:  disabled
  Energy projection: disabled
  Projection particular metric: Euclidean
  Fluid KE gradient: disabled  (eps = 0.001, scale = 1, linear = 1, angular = 1)
  Fluid KE discrete gradient: disabled
  Impulse pair metric correction: disabled  (mode = pair discrete-gradient, cutoff = all pairs, inner/outer = 0/0, eps = 0.001, linear scale = 1, angular scale = 0)
  Impulse metric correction: disabled  (internal load constraint = disabled)
  Impulse variational defect probe: disabled
  Impulse quadratic pressure: disabled  (scale = 1)
  Added-mass stab:   disabled
  Exact BEM geometry: disabled
  Exact singular BEM: disabled
  Legacy singular SLP diagnostic: disabled
  Phi-dot blend:     0 (off)

  Solver guidance:
    - Strong coupling: use for stiff close-coupled runs; slower but more implicit.
    - Impulse scheme: use when impulse/momentum conservation or KE drift is the focus. Recommended.
    - Added-mass stab: use for higher mesh counts (ndiv > 3) to preserve stability - deprecated.
================================================
Solver starting - good luck!

Initial state:
  Body  1
    density:          10.000000
    shape axes ratio: (1.000000, 0.800000, 0.600000)
    initial KE ratio: 1.500000
    position:         (-1.500000, 0.000000, 0.000000)
    velocity:         (1.349636, 0.491243, -2.978424)
    angular velocity: (4.194645, -3.386691, -3.227026)
    orientation:      (w=-0.267093, i=-0.755216, j=0.408938, k=-0.437126)
  Body  2
    density:          10.000000
    shape axes ratio: (1.000000, 0.800000, 0.600000)
    initial KE ratio: 1.500000
    position:         (1.500000, 0.000000, 0.000000)
    velocity:         (1.465344, 0.533359, -3.233775)
    angular velocity: (1.058972, -4.125308, 4.619397)
    orientation:      (w=-0.549146, i=0.505000, j=0.230251, k=-0.624818)

Preparing first step: implicit scheme, no bootstrap passes required.
First step may take longer than later steps.

First step completed in 7.043 s.

Step   100/2000    5.0% | t 5.000 | ETA 3m 13s | step 0.09s | KE 1304.5983 | drift +3.37% | fluid 25.3834 | solid 1279.2149
  Impulse FP iterations last/mean/max 7/7.13/8
Step   200/2000   10.0% | t 10.000 | ETA 3m 4s | step 0.12s | KE 1313.2887 | drift +4.06% | fluid 33.1390 | solid 1280.1497
  Impulse FP iterations last/mean/max 8/7.11/8
Step   300/2000   15.0% | t 15.000 | ETA 2m 53s | step 0.09s | KE 1312.7540 | drift +4.01% | fluid 39.5482 | solid 1273.2058
  Impulse FP iterations last/mean/max 7/7.10/8
Step   400/2000   20.0% | t 20.000 | ETA 2m 42s | step 0.10s | KE 1310.9981 | drift +3.87% | fluid 33.2348 | solid 1277.7633
  Impulse FP iterations last/mean/max 7/7.10/8
Step   500/2000   25.0% | t 25.000 | ETA 2m 32s | step 0.10s | KE 1309.0655 | drift +3.72% | fluid 33.1402 | solid 1275.9253
  Impulse FP iterations last/mean/max 7/7.10/8
Step   600/2000   30.0% | t 30.000 | ETA 2m 22s | step 0.12s | KE 1307.7775 | drift +3.62% | fluid 28.6233 | solid 1279.1543
  Impulse FP iterations last/mean/max 8/7.11/8
Step   700/2000   35.0% | t 35.000 | ETA 2m 11s | step 0.10s | KE 1306.9849 | drift +3.56% | fluid 28.1668 | solid 1278.8182
  Impulse FP iterations last/mean/max 7/7.10/8
Step   800/2000   40.0% | t 40.000 | ETA 2m 1s | step 0.10s | KE 1306.1746 | drift +3.49% | fluid 36.5723 | solid 1269.6022
  Impulse FP iterations last/mean/max 7/7.10/8
Step   900/2000   45.0% | t 45.000 | ETA 1m 51s | step 0.10s | KE 1305.8740 | drift +3.47% | fluid 35.3578 | solid 1270.5162
  Impulse FP iterations last/mean/max 7/7.09/8
Step  1000/2000   50.0% | t 50.000 | ETA 1m 41s | step 0.10s | KE 1305.9226 | drift +3.47% | fluid 26.8848 | solid 1279.0378
  Impulse FP iterations last/mean/max 7/7.09/8
Step  1100/2000   55.0% | t 55.000 | ETA 1m 31s | step 0.10s | KE 1305.7239 | drift +3.46% | fluid 29.6178 | solid 1276.1061
  Impulse FP iterations last/mean/max 7/7.09/8
Step  1200/2000   60.0% | t 60.000 | ETA 1m 20s | step 0.10s | KE 1305.7212 | drift +3.46% | fluid 34.2642 | solid 1271.4570
  Impulse FP iterations last/mean/max 7/7.09/8
Step  1300/2000   65.0% | t 65.000 | ETA 1m 10s | step 0.09s | KE 1305.7423 | drift +3.46% | fluid 36.3303 | solid 1269.4120
  Impulse FP iterations last/mean/max 7/7.09/8
Step  1400/2000   70.0% | t 70.000 | ETA 1m 0s | step 0.11s | KE 1305.6836 | drift +3.45% | fluid 36.2126 | solid 1269.4710
  Impulse FP iterations last/mean/max 8/7.09/8
Step  1500/2000   75.0% | t 75.000 | ETA 50s | step 0.10s | KE 1305.9226 | drift +3.47% | fluid 27.7346 | solid 1278.1880
  Impulse FP iterations last/mean/max 7/7.09/8
Step  1600/2000   80.0% | t 80.000 | ETA 40s | step 0.11s | KE 1305.8377 | drift +3.46% | fluid 31.4137 | solid 1274.4240
  Impulse FP iterations last/mean/max 8/7.09/8
Step  1700/2000   85.0% | t 85.000 | ETA 30s | step 0.10s | KE 1306.0267 | drift +3.48% | fluid 31.6528 | solid 1274.3738
  Impulse FP iterations last/mean/max 7/7.09/8
Step  1800/2000   90.0% | t 90.000 | ETA 20s | step 0.09s | KE 1305.9248 | drift +3.47% | fluid 34.9059 | solid 1271.0189
  Impulse FP iterations last/mean/max 7/7.09/8
Step  1900/2000   95.0% | t 95.000 | ETA 10s | step 0.09s | KE 1305.8711 | drift +3.47% | fluid 34.3710 | solid 1271.5001
  Impulse FP iterations last/mean/max 7/7.09/8
Solver finished successfully - good job!
Results saved successfully.

================== Run summary ==================
  Bodies:            2
  Triangles / nodes: 256 / 516
  Timesteps:         2000  (dt = 0.05)
  Simulated time:    0 -> 100
  First-step setup:  7.043 s
  Mean time/step:    0.0998 s  (excl. first step)
  Total wall time:   3m 26s
  Impulse FP iters last/mean/max: 7 / 7.096 / 8
  Approx impulse solves/step:     7.097
  Impulse start cache hits/direct: 1999 / 1
  Impulse global drift P/H:       1.339615e-9 / 3.069151e-2
  Impulse per-body max drift P/H: 2.582499e-9 / 1.361144e-2
  CPU cores:         256 available, 8 Rayon worker thread(s)
  Started:           2026-06-24 01:17:40
  Finished:          2026-06-24 01:21:08
  Output file:       /work/e643/e643/shared/multi_ellip/studies/two_body_paper_sweeps/runs/ellipsoid_1_0p8_0p6/ellipsoid_1_0p8_0p6_rho10_E1p5_sep3_run04_impulse_noproj/multiple_body_complete.dat
================================================
