
================ Simulation setup ================
  Run label:         /work/e643/e643/shared/multi_ellip/studies/two_body_paper_sweeps/runs/spheroid_1_0p7_0p7/spheroid_1_0p7_0p7_rho4_E0p2_sep11_run03_impulse_noproj/
  Started:           2026-06-24 01:21:56
  Input file:        /work/e643/e643/shared/multi_ellip/studies/two_body_paper_sweeps/runs/spheroid_1_0p7_0p7/spheroid_1_0p7_0p7_rho4_E0p2_sep11_run03_impulse_noproj/input.txt
  Output file:       /work/e643/e643/shared/multi_ellip/studies/two_body_paper_sweeps/runs/spheroid_1_0p7_0p7/spheroid_1_0p7_0p7_rho4_E0p2_sep11_run03_impulse_noproj/multiple_body_complete.dat
  Bodies:            2
  Fluid density:     1
  Mesh:              ndiv 2 -> 256 triangles / 516 nodes
  Simulated time:    0 -> 100  (dt = 0.05, ~2000 steps)
  Output cadence:    every 1 step(s)
  Output rows:       ~2001
  Progress cadence:  every 100 step(s)
  CPU cores:         256 available, 8 Rayon worker thread(s)
  Strong coupling:   disabled
  Impulse scheme:    enabled
  Hamiltonian step:  disabled
  Hamiltonian midpt: disabled
  Variational step:  disabled
  Energy projection: disabled
  Projection particular metric: Euclidean
  Fluid KE gradient: disabled  (eps = 0.001, scale = 1, linear = 1, angular = 1)
  Fluid KE discrete gradient: disabled
  Impulse pair metric correction: disabled  (mode = pair discrete-gradient, cutoff = all pairs, inner/outer = 0/0, eps = 0.001, linear scale = 1, angular scale = 0)
  Impulse metric correction: disabled  (internal load constraint = disabled)
  Impulse variational defect probe: disabled
  Impulse quadratic pressure: disabled  (scale = 1)
  Added-mass stab:   disabled
  Exact BEM geometry: disabled
  Exact singular BEM: disabled
  Legacy singular SLP diagnostic: disabled
  Phi-dot blend:     0 (off)

  Solver guidance:
    - Strong coupling: use for stiff close-coupled runs; slower but more implicit.
    - Impulse scheme: use when impulse/momentum conservation or KE drift is the focus. Recommended.
    - Added-mass stab: use for higher mesh counts (ndiv > 3) to preserve stability - deprecated.
================================================
Solver starting - good luck!

Initial state:
  Body  1
    density:          4.000000
    shape axes ratio: (1.000000, 0.700000, 0.700000)
    initial KE ratio: 0.200000
    position:         (-5.500000, 0.000000, 0.000000)
    velocity:         (-1.767655, 0.580635, -9.509684)
    angular velocity: (0.953331, -1.393684, 6.052043)
    orientation:      (w=0.259069, i=-0.298802, j=0.218454, k=0.892120)
  Body  2
    density:          4.000000
    shape axes ratio: (1.000000, 0.700000, 0.700000)
    initial KE ratio: 0.200000
    position:         (5.500000, 0.000000, 0.000000)
    velocity:         (-1.639253, 0.538458, -8.818901)
    angular velocity: (4.114538, -2.350165, 4.126224)
    orientation:      (w=0.348503, i=-0.182192, j=-0.250759, k=0.884574)

Preparing first step: implicit scheme, no bootstrap passes required.
First step may take longer than later steps.

First step completed in 0.274 s.

Step   100/2000    5.0% | t 5.000 | ETA 3m 27s | step 0.12s | KE 1914.0641 | drift +0.06% | fluid 197.7070 | solid 1716.3571
  Impulse FP iterations last/mean/max 8/7.93/8
Step   200/2000   10.0% | t 10.000 | ETA 3m 19s | step 0.10s | KE 1912.3735 | drift -0.02% | fluid 231.6522 | solid 1680.7213
  Impulse FP iterations last/mean/max 8/7.96/8
Step   300/2000   15.0% | t 15.000 | ETA 3m 9s | step 0.10s | KE 1915.2617 | drift +0.13% | fluid 209.4689 | solid 1705.7928
  Impulse FP iterations last/mean/max 8/7.96/8
Step   400/2000   20.0% | t 20.000 | ETA 2m 58s | step 0.11s | KE 1912.5453 | drift -0.01% | fluid 191.7212 | solid 1720.8241
  Impulse FP iterations last/mean/max 8/7.96/8
Step   500/2000   25.0% | t 25.000 | ETA 2m 47s | step 0.12s | KE 1914.0885 | drift +0.07% | fluid 224.7601 | solid 1689.3283
  Impulse FP iterations last/mean/max 8/7.97/8
Step   600/2000   30.0% | t 30.000 | ETA 2m 36s | step 0.12s | KE 1913.6417 | drift +0.04% | fluid 212.8189 | solid 1700.8228
  Impulse FP iterations last/mean/max 8/7.97/8
Step   700/2000   35.0% | t 35.000 | ETA 2m 25s | step 0.11s | KE 1913.8196 | drift +0.05% | fluid 210.4079 | solid 1703.4117
  Impulse FP iterations last/mean/max 8/7.97/8
Step   800/2000   40.0% | t 40.000 | ETA 2m 14s | step 0.11s | KE 1913.3327 | drift +0.03% | fluid 196.6416 | solid 1716.6911
  Impulse FP iterations last/mean/max 8/7.96/8
Step   900/2000   45.0% | t 45.000 | ETA 2m 3s | step 0.10s | KE 1913.6719 | drift +0.04% | fluid 218.7769 | solid 1694.8949
  Impulse FP iterations last/mean/max 8/7.96/8
Step  1000/2000   50.0% | t 50.000 | ETA 1m 52s | step 0.11s | KE 1913.4821 | drift +0.03% | fluid 228.7754 | solid 1684.7067
  Impulse FP iterations last/mean/max 8/7.96/8
Step  1100/2000   55.0% | t 55.000 | ETA 1m 41s | step 0.12s | KE 1913.5383 | drift +0.04% | fluid 185.3211 | solid 1728.2172
  Impulse FP iterations last/mean/max 8/7.97/8
Step  1200/2000   60.0% | t 60.000 | ETA 1m 29s | step 0.12s | KE 1913.4047 | drift +0.03% | fluid 215.2704 | solid 1698.1343
  Impulse FP iterations last/mean/max 8/7.97/8
Step  1300/2000   65.0% | t 65.000 | ETA 1m 18s | step 0.11s | KE 1913.6885 | drift +0.04% | fluid 222.9672 | solid 1690.7213
  Impulse FP iterations last/mean/max 8/7.97/8
Step  1400/2000   70.0% | t 70.000 | ETA 1m 7s | step 0.11s | KE 1913.3363 | drift +0.03% | fluid 207.3295 | solid 1706.0068
  Impulse FP iterations last/mean/max 8/7.97/8
Step  1500/2000   75.0% | t 75.000 | ETA 56s | step 0.11s | KE 1913.5910 | drift +0.04% | fluid 202.7167 | solid 1710.8743
  Impulse FP iterations last/mean/max 8/7.97/8
Step  1600/2000   80.0% | t 80.000 | ETA 44s | step 0.11s | KE 1913.3803 | drift +0.03% | fluid 208.4367 | solid 1704.9436
  Impulse FP iterations last/mean/max 8/7.97/8
Step  1700/2000   85.0% | t 85.000 | ETA 33s | step 0.09s | KE 1913.6234 | drift +0.04% | fluid 229.2494 | solid 1684.3740
  Impulse FP iterations last/mean/max 8/7.97/8
Step  1800/2000   90.0% | t 90.000 | ETA 22s | step 0.10s | KE 1913.3966 | drift +0.03% | fluid 202.6358 | solid 1710.7608
  Impulse FP iterations last/mean/max 8/7.97/8
Step  1900/2000   95.0% | t 95.000 | ETA 11s | step 0.10s | KE 1913.4193 | drift +0.03% | fluid 193.5200 | solid 1719.8994
  Impulse FP iterations last/mean/max 8/7.97/8
Solver finished successfully - good job!
Results saved successfully.

================== Run summary ==================
  Bodies:            2
  Triangles / nodes: 256 / 516
  Timesteps:         2000  (dt = 0.05)
  Simulated time:    0 -> 100
  First-step setup:  0.274 s
  Mean time/step:    0.1090 s  (excl. first step)
  Total wall time:   3m 38s
  Impulse FP iters last/mean/max: 8 / 7.967 / 8
  Approx impulse solves/step:     7.967
  Impulse start cache hits/direct: 1999 / 1
  Impulse global drift P/H:       6.427991e-10 / 1.054123e-2
  Impulse per-body max drift P/H: 1.979482e-9 / 5.623367e-4
  CPU cores:         256 available, 8 Rayon worker thread(s)
  Started:           2026-06-24 01:21:56
  Finished:          2026-06-24 01:25:35
  Output file:       /work/e643/e643/shared/multi_ellip/studies/two_body_paper_sweeps/runs/spheroid_1_0p7_0p7/spheroid_1_0p7_0p7_rho4_E0p2_sep11_run03_impulse_noproj/multiple_body_complete.dat
================================================
