
================ Simulation setup ================
  Run label:         /work/e643/e643/shared/multi_ellip/studies/two_body_paper_sweeps/runs/spheroid_1_0p7_0p7/spheroid_1_0p7_0p7_rho0p3_E1p5_sep5_run01_impulse_noproj/
  Started:           2026-06-22 19:45:29
  Input file:        /work/e643/e643/shared/multi_ellip/studies/two_body_paper_sweeps/runs/spheroid_1_0p7_0p7/spheroid_1_0p7_0p7_rho0p3_E1p5_sep5_run01_impulse_noproj/input.txt
  Output file:       /work/e643/e643/shared/multi_ellip/studies/two_body_paper_sweeps/runs/spheroid_1_0p7_0p7/spheroid_1_0p7_0p7_rho0p3_E1p5_sep5_run01_impulse_noproj/multiple_body_complete.dat
  Bodies:            2
  Fluid density:     1
  Mesh:              ndiv 2 -> 256 triangles / 516 nodes
  Simulated time:    0 -> 100  (dt = 0.05, ~2000 steps)
  Output cadence:    every 1 step(s)
  Output rows:       ~2001
  Progress cadence:  every 100 step(s)
  CPU cores:         256 available, 8 Rayon worker thread(s)
  Strong coupling:   disabled
  Impulse scheme:    enabled
  Hamiltonian step:  disabled
  Hamiltonian midpt: disabled
  Variational step:  disabled
  Energy projection: disabled
  Projection particular metric: Euclidean
  Fluid KE gradient: disabled  (eps = 0.001, scale = 1, linear = 1, angular = 1)
  Fluid KE discrete gradient: disabled
  Impulse pair metric correction: disabled  (mode = pair discrete-gradient, cutoff = all pairs, inner/outer = 0/0, eps = 0.001, linear scale = 1, angular scale = 0)
  Impulse metric correction: disabled  (internal load constraint = disabled)
  Impulse variational defect probe: disabled
  Impulse quadratic pressure: disabled  (scale = 1)
  Added-mass stab:   disabled
  Exact BEM geometry: disabled
  Exact singular BEM: disabled
  Legacy singular SLP diagnostic: disabled
  Phi-dot blend:     0 (off)

  Solver guidance:
    - Strong coupling: use for stiff close-coupled runs; slower but more implicit.
    - Impulse scheme: use when impulse/momentum conservation or KE drift is the focus. Recommended.
    - Added-mass stab: use for higher mesh counts (ndiv > 3) to preserve stability - deprecated.
================================================
Solver starting - good luck!

Initial state:
  Body  1
    density:          0.300000
    shape axes ratio: (1.000000, 0.700000, 0.700000)
    initial KE ratio: 1.500000
    position:         (-2.500000, 0.000000, 0.000000)
    velocity:         (-0.250326, 2.432320, -2.538991)
    angular velocity: (1.330102, 3.773316, -4.844722)
    orientation:      (w=0.447214, i=0.894427, j=0.000000, k=0.000000)
  Body  2
    density:          0.300000
    shape axes ratio: (1.000000, 0.700000, 0.700000)
    initial KE ratio: 1.500000
    position:         (2.500000, 0.000000, 0.000000)
    velocity:         (-0.225590, 2.191972, -2.288102)
    angular velocity: (-4.806756, 3.729614, 1.569552)
    orientation:      (w=0.707107, i=0.000000, j=0.707107, k=0.000000)

Preparing first step: implicit scheme, no bootstrap passes required.
First step may take longer than later steps.

First step completed in 0.270 s.

Step   100/2000    5.0% | t 5.000 | ETA 3m 21s | step 0.11s | KE 69.5608 | drift -3.28% | fluid 33.9397 | solid 35.6212
  Impulse FP iterations last/mean/max 13/12.27/13
Step   200/2000   10.0% | t 10.000 | ETA 3m 9s | step 0.10s | KE 71.2908 | drift -0.88% | fluid 34.3435 | solid 36.9473
  Impulse FP iterations last/mean/max 11/12.19/13
Step   300/2000   15.0% | t 15.000 | ETA 3m 3s | step 0.12s | KE 70.8479 | drift -1.50% | fluid 34.2613 | solid 36.5866
  Impulse FP iterations last/mean/max 12/12.10/13
Step   400/2000   20.0% | t 20.000 | ETA 3m 6s | step 0.16s | KE 70.8507 | drift -1.49% | fluid 34.2439 | solid 36.6068
  Impulse FP iterations last/mean/max 12/12.04/13
Step   500/2000   25.0% | t 25.000 | ETA 3m 4s | step 0.15s | KE 70.9171 | drift -1.40% | fluid 34.2585 | solid 36.6587
  Impulse FP iterations last/mean/max 12/11.98/13
Step   600/2000   30.0% | t 30.000 | ETA 3m 1s | step 0.16s | KE 70.8395 | drift -1.51% | fluid 34.2163 | solid 36.6231
  Impulse FP iterations last/mean/max 11/11.92/13
Step   700/2000   35.0% | t 35.000 | ETA 2m 55s | step 0.16s | KE 70.7851 | drift -1.58% | fluid 34.1953 | solid 36.5899
  Impulse FP iterations last/mean/max 11/11.89/13
Step   800/2000   40.0% | t 40.000 | ETA 2m 46s | step 0.16s | KE 70.7821 | drift -1.59% | fluid 34.1804 | solid 36.6018
  Impulse FP iterations last/mean/max 11/11.89/13
Step   900/2000   45.0% | t 45.000 | ETA 2m 36s | step 0.15s | KE 70.7542 | drift -1.63% | fluid 34.1743 | solid 36.5798
  Impulse FP iterations last/mean/max 11/11.88/13
Step  1000/2000   50.0% | t 50.000 | ETA 2m 24s | step 0.15s | KE 70.7564 | drift -1.62% | fluid 34.1866 | solid 36.5698
  Impulse FP iterations last/mean/max 11/11.85/13
Step  1100/2000   55.0% | t 55.000 | ETA 2m 12s | step 0.16s | KE 70.8010 | drift -1.56% | fluid 34.2087 | solid 36.5923
  Impulse FP iterations last/mean/max 11/11.84/13
Step  1200/2000   60.0% | t 60.000 | ETA 1m 59s | step 0.19s | KE 70.8206 | drift -1.53% | fluid 34.2429 | solid 36.5777
  Impulse FP iterations last/mean/max 13/11.84/13
Step  1300/2000   65.0% | t 65.000 | ETA 1m 45s | step 0.17s | KE 70.8646 | drift -1.47% | fluid 34.2634 | solid 36.6012
  Impulse FP iterations last/mean/max 11/11.84/13
Step  1400/2000   70.0% | t 70.000 | ETA 1m 31s | step 0.18s | KE 70.8764 | drift -1.46% | fluid 34.2944 | solid 36.5820
  Impulse FP iterations last/mean/max 12/11.82/13
Step  1500/2000   75.0% | t 75.000 | ETA 1m 16s | step 0.16s | KE 70.9066 | drift -1.41% | fluid 34.2984 | solid 36.6082
  Impulse FP iterations last/mean/max 12/11.81/13
Step  1600/2000   80.0% | t 80.000 | ETA 1m 1s | step 0.17s | KE 70.8893 | drift -1.44% | fluid 34.3097 | solid 36.5796
  Impulse FP iterations last/mean/max 12/11.80/13
Step  1700/2000   85.0% | t 85.000 | ETA 46s | step 0.18s | KE 70.9013 | drift -1.42% | fluid 34.2946 | solid 36.6067
  Impulse FP iterations last/mean/max 13/11.81/13
Step  1800/2000   90.0% | t 90.000 | ETA 31s | step 0.17s | KE 70.8676 | drift -1.47% | fluid 34.2851 | solid 36.5825
  Impulse FP iterations last/mean/max 12/11.80/13
Step  1900/2000   95.0% | t 95.000 | ETA 15s | step 0.18s | KE 70.8508 | drift -1.49% | fluid 34.2541 | solid 36.5968
  Impulse FP iterations last/mean/max 12/11.79/13
Solver finished successfully - good job!
Results saved successfully.

================== Run summary ==================
  Bodies:            2
  Triangles / nodes: 256 / 516
  Timesteps:         2000  (dt = 0.05)
  Simulated time:    0 -> 100
  First-step setup:  0.270 s
  Mean time/step:    0.1563 s  (excl. first step)
  Total wall time:   5m 12s
  Impulse FP iters last/mean/max: 12 / 11.793 / 13
  Approx impulse solves/step:     11.794
  Impulse start cache hits/direct: 1999 / 1
  Impulse global drift P/H:       1.802213e-8 / 1.089675e-2
  Impulse per-body max drift P/H: 2.530534e-8 / 2.618605e-3
  CPU cores:         256 available, 8 Rayon worker thread(s)
  Started:           2026-06-22 19:45:29
  Finished:          2026-06-22 19:50:47
  Output file:       /work/e643/e643/shared/multi_ellip/studies/two_body_paper_sweeps/runs/spheroid_1_0p7_0p7/spheroid_1_0p7_0p7_rho0p3_E1p5_sep5_run01_impulse_noproj/multiple_body_complete.dat
================================================
