
================ Simulation setup ================
  Run label:         /work/e643/e643/shared/multi_ellip/studies/departing_sphericity_sweep/runs/spheroid_oblate/homogeneous/spheroid_oblate_homogeneous_eps0p3_rho1_E0p5_sep8_run04_impulse_noproj/
  Started:           2026-06-24 02:30:08
  Input file:        /work/e643/e643/shared/multi_ellip/studies/departing_sphericity_sweep/runs/spheroid_oblate/homogeneous/spheroid_oblate_homogeneous_eps0p3_rho1_E0p5_sep8_run04_impulse_noproj/input.txt
  Output file:       /work/e643/e643/shared/multi_ellip/studies/departing_sphericity_sweep/runs/spheroid_oblate/homogeneous/spheroid_oblate_homogeneous_eps0p3_rho1_E0p5_sep8_run04_impulse_noproj/multiple_body_complete.dat
  Bodies:            2
  Fluid density:     1
  Mesh:              ndiv 2 -> 256 triangles / 516 nodes
  Simulated time:    0 -> 100  (dt = 0.05, ~2000 steps)
  Output cadence:    every 1 step(s)
  Output rows:       ~2001
  Progress cadence:  every 100 step(s)
  CPU cores:         256 available, 8 Rayon worker thread(s)
  Strong coupling:   disabled
  Impulse scheme:    enabled
  Hamiltonian step:  disabled
  Hamiltonian midpt: disabled
  Variational step:  disabled
  Energy projection: disabled
  Projection particular metric: Euclidean
  Fluid KE gradient: disabled  (eps = 0.001, scale = 1, linear = 1, angular = 1)
  Fluid KE discrete gradient: disabled
  Impulse pair metric correction: disabled  (mode = pair discrete-gradient, cutoff = all pairs, inner/outer = 0/0, eps = 0.001, linear scale = 1, angular scale = 0)
  Impulse metric correction: disabled  (internal load constraint = disabled)
  Impulse variational defect probe: disabled
  Impulse quadratic pressure: disabled  (scale = 1)
  Added-mass stab:   disabled
  Exact BEM geometry: disabled
  Exact singular BEM: disabled
  Legacy singular SLP diagnostic: disabled
  Phi-dot blend:     0 (off)

  Solver guidance:
    - Strong coupling: use for stiff close-coupled runs; slower but more implicit.
    - Impulse scheme: use when impulse/momentum conservation or KE drift is the focus. Recommended.
    - Added-mass stab: use for higher mesh counts (ndiv > 3) to preserve stability - deprecated.
================================================
Solver starting - good luck!

Initial state:
  Body  1
    density:          1.000000
    shape axes ratio: (1.000000, 1.000000, 0.455166)
    initial KE ratio: 0.500000
    position:         (-4.000000, 0.000000, 0.000000)
    velocity:         (2.736155, -1.892942, 4.914296)
    angular velocity: (-1.395561, -5.650346, 2.367364)
    orientation:      (w=-0.041132, i=-0.996552, j=-0.071994, k=0.003062)
  Body  2
    density:          1.000000
    shape axes ratio: (1.000000, 1.000000, 0.455166)
    initial KE ratio: 0.500000
    position:         (4.000000, 0.000000, 0.000000)
    velocity:         (3.282934, -2.271218, 5.896343)
    angular velocity: (-1.367773, -1.764798, -5.873083)
    orientation:      (w=0.903063, i=-0.244125, j=-0.279886, k=0.215738)

Preparing first step: implicit scheme, no bootstrap passes required.
First step may take longer than later steps.

First step completed in 0.321 s.

Step   100/2000    5.0% | t 5.000 | ETA 5m 51s | step 0.20s | KE 393.4512 | drift +0.04% | fluid 147.0899 | solid 246.3613
  Impulse FP iterations last/mean/max 14/13.31/15
Step   200/2000   10.0% | t 10.000 | ETA 5m 33s | step 0.20s | KE 393.5961 | drift +0.07% | fluid 143.7282 | solid 249.8678
  Impulse FP iterations last/mean/max 14/13.34/15
Step   300/2000   15.0% | t 15.000 | ETA 5m 13s | step 0.18s | KE 393.8140 | drift +0.13% | fluid 138.1550 | solid 255.6590
  Impulse FP iterations last/mean/max 13/13.32/15
Step   400/2000   20.0% | t 20.000 | ETA 4m 54s | step 0.17s | KE 392.5352 | drift -0.20% | fluid 159.6514 | solid 232.8838
  Impulse FP iterations last/mean/max 13/13.33/15
Step   500/2000   25.0% | t 25.000 | ETA 4m 34s | step 0.18s | KE 393.7536 | drift +0.11% | fluid 136.3896 | solid 257.3640
  Impulse FP iterations last/mean/max 13/13.32/15
Step   600/2000   30.0% | t 30.000 | ETA 4m 16s | step 0.20s | KE 391.7941 | drift -0.38% | fluid 167.0061 | solid 224.7880
  Impulse FP iterations last/mean/max 13/13.31/15
Step   700/2000   35.0% | t 35.000 | ETA 3m 58s | step 0.18s | KE 393.7083 | drift +0.10% | fluid 138.1665 | solid 255.5418
  Impulse FP iterations last/mean/max 13/13.32/15
Step   800/2000   40.0% | t 40.000 | ETA 3m 40s | step 0.18s | KE 392.9526 | drift -0.09% | fluid 155.9210 | solid 237.0316
  Impulse FP iterations last/mean/max 14/13.31/15
Step   900/2000   45.0% | t 45.000 | ETA 3m 21s | step 0.17s | KE 393.6096 | drift +0.08% | fluid 144.2174 | solid 249.3922
  Impulse FP iterations last/mean/max 13/13.31/15
Step  1000/2000   50.0% | t 50.000 | ETA 3m 3s | step 0.18s | KE 393.5682 | drift +0.07% | fluid 144.3708 | solid 249.1974
  Impulse FP iterations last/mean/max 13/13.30/15
Step  1100/2000   55.0% | t 55.000 | ETA 2m 44s | step 0.19s | KE 392.8567 | drift -0.11% | fluid 157.4657 | solid 235.3910
  Impulse FP iterations last/mean/max 14/13.30/15
Step  1200/2000   60.0% | t 60.000 | ETA 2m 26s | step 0.17s | KE 393.5486 | drift +0.06% | fluid 140.0069 | solid 253.5418
  Impulse FP iterations last/mean/max 13/13.30/15
Step  1300/2000   65.0% | t 65.000 | ETA 2m 6s | step 0.19s | KE 391.6182 | drift -0.43% | fluid 169.7165 | solid 221.9016
  Impulse FP iterations last/mean/max 14/13.31/15
Step  1400/2000   70.0% | t 70.000 | ETA 1m 48s | step 0.17s | KE 393.5131 | drift +0.05% | fluid 139.7069 | solid 253.8062
  Impulse FP iterations last/mean/max 13/13.30/15
Step  1500/2000   75.0% | t 75.000 | ETA 1m 28s | step 0.14s | KE 392.3047 | drift -0.26% | fluid 163.5697 | solid 228.7349
  Impulse FP iterations last/mean/max 14/13.30/15
Step  1600/2000   80.0% | t 80.000 | ETA 1m 10s | step 0.16s | KE 393.5548 | drift +0.06% | fluid 142.6108 | solid 250.9439
  Impulse FP iterations last/mean/max 13/13.30/15
Step  1700/2000   85.0% | t 85.000 | ETA 52s | step 0.14s | KE 393.3825 | drift +0.02% | fluid 149.0530 | solid 244.3295
  Impulse FP iterations last/mean/max 13/13.30/15
Step  1800/2000   90.0% | t 90.000 | ETA 34s | step 0.14s | KE 393.2542 | drift -0.01% | fluid 151.7510 | solid 241.5032
  Impulse FP iterations last/mean/max 14/13.30/15
Step  1900/2000   95.0% | t 95.000 | ETA 17s | step 0.14s | KE 393.6012 | drift +0.07% | fluid 140.8780 | solid 252.7232
  Impulse FP iterations last/mean/max 13/13.30/15
Solver finished successfully - good job!
Results saved successfully.

================== Run summary ==================
  Bodies:            2
  Triangles / nodes: 256 / 516
  Timesteps:         2000  (dt = 0.05)
  Simulated time:    0 -> 100
  First-step setup:  0.321 s
  Mean time/step:    0.1681 s  (excl. first step)
  Total wall time:   5m 36s
  Impulse FP iters last/mean/max: 14 / 13.302 / 15
  Approx impulse solves/step:     13.302
  Impulse start cache hits/direct: 1999 / 1
  Impulse global drift P/H:       8.606511e-9 / 8.777726e-3
  Impulse per-body max drift P/H: 1.870751e-8 / 1.230905e-3
  CPU cores:         256 available, 8 Rayon worker thread(s)
  Started:           2026-06-24 02:30:08
  Finished:          2026-06-24 02:35:45
  Output file:       /work/e643/e643/shared/multi_ellip/studies/departing_sphericity_sweep/runs/spheroid_oblate/homogeneous/spheroid_oblate_homogeneous_eps0p3_rho1_E0p5_sep8_run04_impulse_noproj/multiple_body_complete.dat
================================================
