
================ Simulation setup ================
  Run label:         /work/e643/e643/shared/multi_ellip/studies/departing_sphericity_sweep/runs/spheroid_prolate/homogeneous/spheroid_prolate_homogeneous_eps0p03_rho1_E0p5_sep8_run06_impulse_noproj/
  Started:           2026-06-24 02:30:36
  Input file:        /work/e643/e643/shared/multi_ellip/studies/departing_sphericity_sweep/runs/spheroid_prolate/homogeneous/spheroid_prolate_homogeneous_eps0p03_rho1_E0p5_sep8_run06_impulse_noproj/input.txt
  Output file:       /work/e643/e643/shared/multi_ellip/studies/departing_sphericity_sweep/runs/spheroid_prolate/homogeneous/spheroid_prolate_homogeneous_eps0p03_rho1_E0p5_sep8_run06_impulse_noproj/multiple_body_complete.dat
  Bodies:            2
  Fluid density:     1
  Mesh:              ndiv 2 -> 256 triangles / 516 nodes
  Simulated time:    0 -> 100  (dt = 0.05, ~2000 steps)
  Output cadence:    every 1 step(s)
  Output rows:       ~2001
  Progress cadence:  every 100 step(s)
  CPU cores:         256 available, 8 Rayon worker thread(s)
  Strong coupling:   disabled
  Impulse scheme:    enabled
  Hamiltonian step:  disabled
  Hamiltonian midpt: disabled
  Variational step:  disabled
  Energy projection: disabled
  Projection particular metric: Euclidean
  Fluid KE gradient: disabled  (eps = 0.001, scale = 1, linear = 1, angular = 1)
  Fluid KE discrete gradient: disabled
  Impulse pair metric correction: disabled  (mode = pair discrete-gradient, cutoff = all pairs, inner/outer = 0/0, eps = 0.001, linear scale = 1, angular scale = 0)
  Impulse metric correction: disabled  (internal load constraint = disabled)
  Impulse variational defect probe: disabled
  Impulse quadratic pressure: disabled  (scale = 1)
  Added-mass stab:   disabled
  Exact BEM geometry: disabled
  Exact singular BEM: disabled
  Legacy singular SLP diagnostic: disabled
  Phi-dot blend:     0 (off)

  Solver guidance:
    - Strong coupling: use for stiff close-coupled runs; slower but more implicit.
    - Impulse scheme: use when impulse/momentum conservation or KE drift is the focus. Recommended.
    - Added-mass stab: use for higher mesh counts (ndiv > 3) to preserve stability - deprecated.
================================================
Solver starting - good luck!

Initial state:
  Body  1
    density:          1.000000
    shape axes ratio: (1.000000, 0.915142, 0.915142)
    initial KE ratio: 0.500000
    position:         (-4.000000, 0.000000, 0.000000)
    velocity:         (1.913039, 5.344629, -0.653289)
    angular velocity: (0.301170, -2.783863, 5.624751)
    orientation:      (w=0.136834, i=-0.117874, j=-0.911835, k=0.368699)
  Body  2
    density:          1.000000
    shape axes ratio: (1.000000, 0.915142, 0.915142)
    initial KE ratio: 0.500000
    position:         (4.000000, 0.000000, 0.000000)
    velocity:         (1.906041, 5.325077, -0.650899)
    angular velocity: (-1.830279, -3.886674, -4.585004)
    orientation:      (w=-0.276520, i=0.680317, j=-0.677992, k=0.032134)

Preparing first step: implicit scheme, no bootstrap passes required.
First step may take longer than later steps.

First step completed in 0.228 s.

Step   100/2000    5.0% | t 5.000 | ETA 3m 16s | step 0.12s | KE 280.2632 | drift +0.87% | fluid 74.4200 | solid 205.8432
  Impulse FP iterations last/mean/max 9/8.44/9
Step   200/2000   10.0% | t 10.000 | ETA 3m 9s | step 0.12s | KE 282.9672 | drift +1.84% | fluid 73.5995 | solid 209.3677
  Impulse FP iterations last/mean/max 9/8.36/9
Step   300/2000   15.0% | t 15.000 | ETA 3m 4s | step 0.11s | KE 283.2868 | drift +1.96% | fluid 74.8825 | solid 208.4043
  Impulse FP iterations last/mean/max 8/8.34/9
Step   400/2000   20.0% | t 20.000 | ETA 2m 55s | step 0.12s | KE 286.8855 | drift +3.25% | fluid 74.9768 | solid 211.9088
  Impulse FP iterations last/mean/max 8/8.26/9
Step   500/2000   25.0% | t 25.000 | ETA 2m 45s | step 0.11s | KE 290.3405 | drift +4.49% | fluid 73.6151 | solid 216.7254
  Impulse FP iterations last/mean/max 8/8.21/9
Step   600/2000   30.0% | t 30.000 | ETA 2m 35s | step 0.12s | KE 289.0515 | drift +4.03% | fluid 75.7083 | solid 213.3432
  Impulse FP iterations last/mean/max 8/8.16/9
Step   700/2000   35.0% | t 35.000 | ETA 2m 24s | step 0.12s | KE 285.9845 | drift +2.93% | fluid 74.4250 | solid 211.5596
  Impulse FP iterations last/mean/max 8/8.12/9
Step   800/2000   40.0% | t 40.000 | ETA 2m 13s | step 0.12s | KE 284.7889 | drift +2.50% | fluid 75.4340 | solid 209.3549
  Impulse FP iterations last/mean/max 8/8.07/9
Step   900/2000   45.0% | t 45.000 | ETA 2m 1s | step 0.10s | KE 284.9047 | drift +2.54% | fluid 75.7134 | solid 209.1913
  Impulse FP iterations last/mean/max 7/8.03/9
Step  1000/2000   50.0% | t 50.000 | ETA 1m 50s | step 0.11s | KE 285.0136 | drift +2.58% | fluid 74.9002 | solid 210.1134
  Impulse FP iterations last/mean/max 8/7.98/9
Step  1100/2000   55.0% | t 55.000 | ETA 1m 39s | step 0.11s | KE 285.0531 | drift +2.59% | fluid 75.5046 | solid 209.5485
  Impulse FP iterations last/mean/max 8/7.95/9
Step  1200/2000   60.0% | t 60.000 | ETA 1m 28s | step 0.11s | KE 285.8421 | drift +2.87% | fluid 76.0734 | solid 209.7687
  Impulse FP iterations last/mean/max 7/7.91/9
Step  1300/2000   65.0% | t 65.000 | ETA 1m 16s | step 0.11s | KE 286.5845 | drift +3.14% | fluid 75.0015 | solid 211.5830
  Impulse FP iterations last/mean/max 8/7.89/9
Step  1400/2000   70.0% | t 70.000 | ETA 1m 5s | step 0.10s | KE 286.3603 | drift +3.06% | fluid 76.0655 | solid 210.2948
  Impulse FP iterations last/mean/max 7/7.86/9
Step  1500/2000   75.0% | t 75.000 | ETA 54s | step 0.09s | KE 285.6196 | drift +2.79% | fluid 76.1482 | solid 209.4714
  Impulse FP iterations last/mean/max 7/7.83/9
Step  1600/2000   80.0% | t 80.000 | ETA 43s | step 0.11s | KE 285.2540 | drift +2.66% | fluid 74.7113 | solid 210.5426
  Impulse FP iterations last/mean/max 8/7.82/9
Step  1700/2000   85.0% | t 85.000 | ETA 32s | step 0.09s | KE 285.3341 | drift +2.69% | fluid 75.8383 | solid 209.4958
  Impulse FP iterations last/mean/max 7/7.79/9
Step  1800/2000   90.0% | t 90.000 | ETA 21s | step 0.11s | KE 285.6829 | drift +2.82% | fluid 75.8891 | solid 209.7938
  Impulse FP iterations last/mean/max 7/7.78/9
Step  1900/2000   95.0% | t 95.000 | ETA 10s | step 0.11s | KE 285.8099 | drift +2.86% | fluid 74.6422 | solid 211.1676
  Impulse FP iterations last/mean/max 8/7.76/9
Solver finished successfully - good job!
Results saved successfully.

================== Run summary ==================
  Bodies:            2
  Triangles / nodes: 256 / 516
  Timesteps:         2000  (dt = 0.05)
  Simulated time:    0 -> 100
  First-step setup:  0.228 s
  Mean time/step:    0.1088 s  (excl. first step)
  Total wall time:   3m 37s
  Impulse FP iters last/mean/max: 8 / 7.752 / 9
  Approx impulse solves/step:     7.752
  Impulse start cache hits/direct: 1999 / 1
  Impulse global drift P/H:       1.395075e-8 / 3.243479e-2
  Impulse per-body max drift P/H: 1.642309e-8 / 2.426373e-3
  CPU cores:         256 available, 8 Rayon worker thread(s)
  Started:           2026-06-24 02:30:36
  Finished:          2026-06-24 02:34:14
  Output file:       /work/e643/e643/shared/multi_ellip/studies/departing_sphericity_sweep/runs/spheroid_prolate/homogeneous/spheroid_prolate_homogeneous_eps0p03_rho1_E0p5_sep8_run06_impulse_noproj/multiple_body_complete.dat
================================================
