
================ Simulation setup ================
  Run label:         /work/e643/e643/shared/multi_ellip/studies/departing_sphericity_sweep/runs/triaxial/homogeneous/triaxial_homogeneous_eps0p001_rho1_E0p5_sep8_run04_impulse_noproj/
  Started:           2026-06-24 02:26:25
  Input file:        /work/e643/e643/shared/multi_ellip/studies/departing_sphericity_sweep/runs/triaxial/homogeneous/triaxial_homogeneous_eps0p001_rho1_E0p5_sep8_run04_impulse_noproj/input.txt
  Output file:       /work/e643/e643/shared/multi_ellip/studies/departing_sphericity_sweep/runs/triaxial/homogeneous/triaxial_homogeneous_eps0p001_rho1_E0p5_sep8_run04_impulse_noproj/multiple_body_complete.dat
  Bodies:            2
  Fluid density:     1
  Mesh:              ndiv 2 -> 256 triangles / 516 nodes
  Simulated time:    0 -> 100  (dt = 0.05, ~2000 steps)
  Output cadence:    every 1 step(s)
  Output rows:       ~2001
  Progress cadence:  every 100 step(s)
  CPU cores:         256 available, 8 Rayon worker thread(s)
  Strong coupling:   disabled
  Impulse scheme:    enabled
  Hamiltonian step:  disabled
  Hamiltonian midpt: disabled
  Variational step:  disabled
  Energy projection: disabled
  Projection particular metric: Euclidean
  Fluid KE gradient: disabled  (eps = 0.001, scale = 1, linear = 1, angular = 1)
  Fluid KE discrete gradient: disabled
  Impulse pair metric correction: disabled  (mode = pair discrete-gradient, cutoff = all pairs, inner/outer = 0/0, eps = 0.001, linear scale = 1, angular scale = 0)
  Impulse metric correction: disabled  (internal load constraint = disabled)
  Impulse variational defect probe: disabled
  Impulse quadratic pressure: disabled  (scale = 1)
  Added-mass stab:   disabled
  Exact BEM geometry: disabled
  Exact singular BEM: disabled
  Legacy singular SLP diagnostic: disabled
  Phi-dot blend:     0 (off)

  Solver guidance:
    - Strong coupling: use for stiff close-coupled runs; slower but more implicit.
    - Impulse scheme: use when impulse/momentum conservation or KE drift is the focus. Recommended.
    - Added-mass stab: use for higher mesh counts (ndiv > 3) to preserve stability - deprecated.
================================================
Solver starting - good luck!

Initial state:
  Body  1
    density:          1.000000
    shape axes ratio: (1.000000, 0.999001, 0.998003)
    initial KE ratio: 0.500000
    position:         (-4.000000, 0.000000, 0.000000)
    velocity:         (1.206054, 4.955519, -2.354157)
    angular velocity: (-6.020398, -1.797647, 0.041109)
    orientation:      (w=-0.879697, i=0.252177, j=-0.194743, k=-0.353009)
  Body  2
    density:          1.000000
    shape axes ratio: (1.000000, 0.999001, 0.998003)
    initial KE ratio: 0.500000
    position:         (4.000000, 0.000000, 0.000000)
    velocity:         (1.207160, 4.960060, -2.356315)
    angular velocity: (1.057581, 1.058993, -6.102333)
    orientation:      (w=0.558024, i=0.190798, j=-0.799239, k=-0.115856)

Preparing first step: implicit scheme, no bootstrap passes required.
First step may take longer than later steps.

First step completed in 0.209 s.

Step   100/2000    5.0% | t 5.000 | ETA 2m 41s | step 0.08s | KE 275.2595 | drift +1.61% | fluid 72.5114 | solid 202.7481
  Impulse FP iterations last/mean/max 7/7.03/8
Step   200/2000   10.0% | t 10.000 | ETA 2m 45s | step 0.11s | KE 280.3502 | drift +3.49% | fluid 72.5257 | solid 207.8245
  Impulse FP iterations last/mean/max 8/7.06/8
Step   300/2000   15.0% | t 15.000 | ETA 2m 40s | step 0.10s | KE 286.1740 | drift +5.64% | fluid 72.5501 | solid 213.6238
  Impulse FP iterations last/mean/max 7/7.07/8
Step   400/2000   20.0% | t 20.000 | ETA 2m 33s | step 0.10s | KE 292.7476 | drift +8.07% | fluid 72.5359 | solid 220.2118
  Impulse FP iterations last/mean/max 7/7.09/8
Step   500/2000   25.0% | t 25.000 | ETA 2m 25s | step 0.10s | KE 300.0795 | drift +10.77% | fluid 72.5156 | solid 227.5639
  Impulse FP iterations last/mean/max 7/7.10/8
Step   600/2000   30.0% | t 30.000 | ETA 2m 16s | step 0.12s | KE 308.1713 | drift +13.76% | fluid 72.5247 | solid 235.6466
  Impulse FP iterations last/mean/max 8/7.11/8
Step   700/2000   35.0% | t 35.000 | ETA 2m 7s | step 0.10s | KE 317.0430 | drift +17.04% | fluid 72.5108 | solid 244.5322
  Impulse FP iterations last/mean/max 7/7.13/8
Step   800/2000   40.0% | t 40.000 | ETA 1m 57s | step 0.10s | KE 326.6901 | drift +20.60% | fluid 72.5317 | solid 254.1583
  Impulse FP iterations last/mean/max 8/7.13/8
Step   900/2000   45.0% | t 45.000 | ETA 1m 48s | step 0.09s | KE 337.1300 | drift +24.45% | fluid 72.5365 | solid 264.5936
  Impulse FP iterations last/mean/max 7/7.14/8
Step  1000/2000   50.0% | t 50.000 | ETA 1m 38s | step 0.12s | KE 348.3747 | drift +28.60% | fluid 72.5414 | solid 275.8333
  Impulse FP iterations last/mean/max 8/7.16/8
Step  1100/2000   55.0% | t 55.000 | ETA 1m 29s | step 0.11s | KE 360.4260 | drift +33.05% | fluid 72.5239 | solid 287.9021
  Impulse FP iterations last/mean/max 8/7.16/8
Step  1200/2000   60.0% | t 60.000 | ETA 1m 19s | step 0.09s | KE 373.2909 | drift +37.80% | fluid 72.5354 | solid 300.7555
  Impulse FP iterations last/mean/max 7/7.17/8
Step  1300/2000   65.0% | t 65.000 | ETA 1m 9s | step 0.10s | KE 386.9816 | drift +42.85% | fluid 72.5311 | solid 314.4505
  Impulse FP iterations last/mean/max 7/7.18/8
Step  1400/2000   70.0% | t 70.000 | ETA 59s | step 0.10s | KE 401.5066 | drift +48.22% | fluid 72.5211 | solid 328.9855
  Impulse FP iterations last/mean/max 7/7.18/8
Step  1500/2000   75.0% | t 75.000 | ETA 49s | step 0.10s | KE 416.8713 | drift +53.89% | fluid 72.5014 | solid 344.3699
  Impulse FP iterations last/mean/max 7/7.19/8
Step  1600/2000   80.0% | t 80.000 | ETA 40s | step 0.10s | KE 433.0693 | drift +59.87% | fluid 72.5319 | solid 360.5373
  Impulse FP iterations last/mean/max 7/7.20/8
Step  1700/2000   85.0% | t 85.000 | ETA 30s | step 0.09s | KE 450.1298 | drift +66.16% | fluid 72.5189 | solid 377.6110
  Impulse FP iterations last/mean/max 7/7.20/8
Step  1800/2000   90.0% | t 90.000 | ETA 20s | step 0.10s | KE 468.0433 | drift +72.78% | fluid 72.5388 | solid 395.5045
  Impulse FP iterations last/mean/max 7/7.21/8
Step  1900/2000   95.0% | t 95.000 | ETA 10s | step 0.11s | KE 486.8349 | drift +79.71% | fluid 72.5299 | solid 414.3050
  Impulse FP iterations last/mean/max 8/7.21/8
Solver finished successfully - good job!
Results saved successfully.

================== Run summary ==================
  Bodies:            2
  Triangles / nodes: 256 / 516
  Timesteps:         2000  (dt = 0.05)
  Simulated time:    0 -> 100
  First-step setup:  0.209 s
  Mean time/step:    0.1003 s  (excl. first step)
  Total wall time:   3m 20s
  Impulse FP iters last/mean/max: 8 / 7.218 / 8
  Approx impulse solves/step:     7.219
  Impulse start cache hits/direct: 1999 / 1
  Impulse global drift P/H:       2.006663e-8 / 2.148317e-2
  Impulse per-body max drift P/H: 2.124546e-8 / 2.028035e-3
  CPU cores:         256 available, 8 Rayon worker thread(s)
  Started:           2026-06-24 02:26:25
  Finished:          2026-06-24 02:29:46
  Output file:       /work/e643/e643/shared/multi_ellip/studies/departing_sphericity_sweep/runs/triaxial/homogeneous/triaxial_homogeneous_eps0p001_rho1_E0p5_sep8_run04_impulse_noproj/multiple_body_complete.dat
================================================
