
================ Simulation setup ================
  Run label:         /work/e643/e643/shared/multi_ellip/studies/multibody_convergence_sweep/runs/periodic_grid_spheroid_1_0p7_0p7_rho4_E1_sep3_nd1_dt0p05/
  Started:           2026-06-22 19:37:46
  Input file:        /work/e643/e643/shared/multi_ellip/studies/multibody_convergence_sweep/runs/periodic_grid_spheroid_1_0p7_0p7_rho4_E1_sep3_nd1_dt0p05/input.txt
  Output file:       /work/e643/e643/shared/multi_ellip/studies/multibody_convergence_sweep/runs/periodic_grid_spheroid_1_0p7_0p7_rho4_E1_sep3_nd1_dt0p05/multiple_body_complete.dat
  Bodies:            2
  Fluid density:     1
  Mesh:              ndiv 1 -> 64 triangles / 132 nodes
  Simulated time:    0 -> 10  (dt = 0.05, ~200 steps)
  Output cadence:    every 1 step(s)
  Output rows:       ~201
  Progress cadence:  every 20 step(s)
  CPU cores:         256 available, 16 Rayon worker thread(s)
  Strong coupling:   disabled
  Impulse scheme:    enabled
  Hamiltonian step:  disabled
  Hamiltonian midpt: disabled
  Variational step:  disabled
  Energy projection: disabled
  Projection particular metric: Euclidean
  Fluid KE gradient: disabled  (eps = 0.001, scale = 1, linear = 1, angular = 1)
  Fluid KE discrete gradient: disabled
  Impulse pair metric correction: disabled  (mode = pair discrete-gradient, cutoff = all pairs, inner/outer = 0/0, eps = 0.001, linear scale = 1, angular scale = 0)
  Impulse metric correction: disabled  (internal load constraint = disabled)
  Impulse variational defect probe: disabled
  Impulse quadratic pressure: disabled  (scale = 1)
  Added-mass stab:   disabled
  Exact BEM geometry: disabled
  Exact singular BEM: disabled
  Legacy singular SLP diagnostic: disabled
  Phi-dot blend:     0 (off)

  Solver guidance:
    - Strong coupling: use for stiff close-coupled runs; slower but more implicit.
    - Impulse scheme: use when impulse/momentum conservation or KE drift is the focus. Recommended.
    - Added-mass stab: use for higher mesh counts (ndiv > 3) to preserve stability - deprecated.
================================================
Solver starting - good luck!

Initial state:
  Body  1
    density:          4.000000
    shape axes ratio: (1.000000, 0.700000, 0.700000)
    initial KE ratio: 1.000000
    position:         (-1.500000, 0.000000, 0.000000)
    velocity:         (1.023309, -3.333439, -2.598921)
    angular velocity: (0.301826, -6.180179, 1.092114)
    orientation:      (w=0.447214, i=0.894427, j=0.000000, k=0.000000)
  Body  2
    density:          4.000000
    shape axes ratio: (1.000000, 0.700000, 0.700000)
    initial KE ratio: 1.000000
    position:         (1.500000, 0.000000, 0.000000)
    velocity:         (0.994796, -3.240558, -2.526506)
    angular velocity: (2.534558, 1.693589, 5.494196)
    orientation:      (w=0.707107, i=0.000000, j=0.707107, k=0.000000)

Preparing first step: implicit scheme, no bootstrap passes required.
First step may take longer than later steps.

First step completed in 0.022 s.

Step    20/200    10.0% | t 1.000 | ETA 1s | step 0.01s | KE 649.4129 | drift +1.94% | fluid 48.2486 | solid 601.1642
  Impulse FP iterations last/mean/max 8/8.00/8
Step    40/200    20.0% | t 2.000 | ETA 1s | step 0.01s | KE 655.4542 | drift +2.89% | fluid 56.2677 | solid 599.1865
  Impulse FP iterations last/mean/max 8/8.00/8
Step    60/200    30.0% | t 3.000 | ETA 1s | step 0.01s | KE 658.9384 | drift +3.44% | fluid 56.3913 | solid 602.5471
  Impulse FP iterations last/mean/max 8/8.00/8
Step    80/200    40.0% | t 4.000 | ETA 1s | step 0.02s | KE 660.5425 | drift +3.69% | fluid 51.8466 | solid 608.6960
  Impulse FP iterations last/mean/max 8/8.01/9
Step   100/200    50.0% | t 5.000 | ETA 1s | step 0.01s | KE 660.8294 | drift +3.73% | fluid 43.6037 | solid 617.2257
  Impulse FP iterations last/mean/max 8/8.01/9
Step   120/200    60.0% | t 6.000 | ETA 0s | step 0.01s | KE 660.7223 | drift +3.72% | fluid 49.7325 | solid 610.9899
  Impulse FP iterations last/mean/max 8/8.00/9
Step   140/200    70.0% | t 7.000 | ETA 0s | step 0.01s | KE 661.4165 | drift +3.82% | fluid 51.2840 | solid 610.1326
  Impulse FP iterations last/mean/max 8/8.04/9
Step   160/200    80.0% | t 8.000 | ETA 0s | step 0.01s | KE 663.5219 | drift +4.16% | fluid 51.5919 | solid 611.9300
  Impulse FP iterations last/mean/max 8/8.05/9
Step   180/200    90.0% | t 9.000 | ETA 0s | step 0.01s | KE 667.1454 | drift +4.72% | fluid 46.2534 | solid 620.8921
  Impulse FP iterations last/mean/max 8/8.04/9
Solver finished successfully - good job!
Results saved successfully.

================== Run summary ==================
  Bodies:            2
  Triangles / nodes: 64 / 132
  Timesteps:         200  (dt = 0.05)
  Simulated time:    0 -> 10
  First-step setup:  0.022 s
  Mean time/step:    0.0122 s  (excl. first step)
  Total wall time:   2.46s
  Impulse FP iters last/mean/max: 8 / 8.025 / 9
  Approx impulse solves/step:     8.030
  Impulse start cache hits/direct: 199 / 1
  Impulse global drift P/H:       1.236924e-9 / 2.148425e-2
  Impulse per-body max drift P/H: 2.061148e-9 / 6.960580e-3
  CPU cores:         256 available, 16 Rayon worker thread(s)
  Started:           2026-06-22 19:37:46
  Finished:          2026-06-22 19:37:49
  Output file:       /work/e643/e643/shared/multi_ellip/studies/multibody_convergence_sweep/runs/periodic_grid_spheroid_1_0p7_0p7_rho4_E1_sep3_nd1_dt0p05/multiple_body_complete.dat
================================================
