
================ Simulation setup ================
  Run label:         /work/e643/e643/shared/multi_ellip/studies/two_body_paper_sweeps/runs/ellipsoid_1_0p8_0p6/ellipsoid_1_0p8_0p6_rho0p3_E0p55_sep11_run03_impulse_noproj/
  Started:           2026-06-24 01:51:03
  Input file:        /work/e643/e643/shared/multi_ellip/studies/two_body_paper_sweeps/runs/ellipsoid_1_0p8_0p6/ellipsoid_1_0p8_0p6_rho0p3_E0p55_sep11_run03_impulse_noproj/input.txt
  Output file:       /work/e643/e643/shared/multi_ellip/studies/two_body_paper_sweeps/runs/ellipsoid_1_0p8_0p6/ellipsoid_1_0p8_0p6_rho0p3_E0p55_sep11_run03_impulse_noproj/multiple_body_complete.dat
  Bodies:            2
  Fluid density:     1
  Mesh:              ndiv 2 -> 256 triangles / 516 nodes
  Simulated time:    0 -> 100  (dt = 0.05, ~2000 steps)
  Output cadence:    every 1 step(s)
  Output rows:       ~2001
  Progress cadence:  every 100 step(s)
  CPU cores:         256 available, 8 Rayon worker thread(s)
  Strong coupling:   disabled
  Impulse scheme:    enabled
  Hamiltonian step:  disabled
  Hamiltonian midpt: disabled
  Variational step:  disabled
  Energy projection: disabled
  Projection particular metric: Euclidean
  Fluid KE gradient: disabled  (eps = 0.001, scale = 1, linear = 1, angular = 1)
  Fluid KE discrete gradient: disabled
  Impulse pair metric correction: disabled  (mode = pair discrete-gradient, cutoff = all pairs, inner/outer = 0/0, eps = 0.001, linear scale = 1, angular scale = 0)
  Impulse metric correction: disabled  (internal load constraint = disabled)
  Impulse variational defect probe: disabled
  Impulse quadratic pressure: disabled  (scale = 1)
  Added-mass stab:   disabled
  Exact BEM geometry: disabled
  Exact singular BEM: disabled
  Legacy singular SLP diagnostic: disabled
  Phi-dot blend:     0 (off)

  Solver guidance:
    - Strong coupling: use for stiff close-coupled runs; slower but more implicit.
    - Impulse scheme: use when impulse/momentum conservation or KE drift is the focus. Recommended.
    - Added-mass stab: use for higher mesh counts (ndiv > 3) to preserve stability - deprecated.
================================================
Solver starting - good luck!

Initial state:
  Body  1
    density:          0.300000
    shape axes ratio: (1.000000, 0.800000, 0.600000)
    initial KE ratio: 0.550000
    position:         (-5.500000, 0.000000, 0.000000)
    velocity:         (-4.238659, -3.741783, -1.194177)
    angular velocity: (-3.632869, -0.061241, 5.126103)
    orientation:      (w=-0.413437, i=0.182660, j=0.591509, k=0.667700)
  Body  2
    density:          0.300000
    shape axes ratio: (1.000000, 0.800000, 0.600000)
    initial KE ratio: 0.550000
    position:         (5.500000, 0.000000, 0.000000)
    velocity:         (-3.980453, -3.513846, -1.121432)
    angular velocity: (3.854237, -4.468247, -2.158250)
    orientation:      (w=0.858217, i=-0.355623, j=-0.058083, k=0.365543)

Preparing first step: implicit scheme, no bootstrap passes required.
First step may take longer than later steps.

First step completed in 0.301 s.

Step   100/2000    5.0% | t 5.000 | ETA 5m 53s | step 0.18s | KE 127.9876 | drift +0.15% | fluid 67.8947 | solid 60.0929
  Impulse FP iterations last/mean/max 14/14.36/16
Step   200/2000   10.0% | t 10.000 | ETA 5m 45s | step 0.18s | KE 127.3467 | drift -0.35% | fluid 68.0842 | solid 59.2624
  Impulse FP iterations last/mean/max 13/14.29/16
Step   300/2000   15.0% | t 15.000 | ETA 5m 30s | step 0.19s | KE 126.8140 | drift -0.76% | fluid 66.7370 | solid 60.0771
  Impulse FP iterations last/mean/max 14/14.29/16
Step   400/2000   20.0% | t 20.000 | ETA 5m 13s | step 0.18s | KE 127.1408 | drift -0.51% | fluid 70.4622 | solid 56.6787
  Impulse FP iterations last/mean/max 14/14.29/16
Step   500/2000   25.0% | t 25.000 | ETA 4m 57s | step 0.22s | KE 126.6566 | drift -0.89% | fluid 66.5072 | solid 60.1494
  Impulse FP iterations last/mean/max 15/14.37/16
Step   600/2000   30.0% | t 30.000 | ETA 4m 39s | step 0.21s | KE 126.6398 | drift -0.90% | fluid 64.9836 | solid 61.6562
  Impulse FP iterations last/mean/max 15/14.38/16
Step   700/2000   35.0% | t 35.000 | ETA 4m 19s | step 0.21s | KE 126.9496 | drift -0.66% | fluid 66.1625 | solid 60.7871
  Impulse FP iterations last/mean/max 14/14.37/16
Step   800/2000   40.0% | t 40.000 | ETA 4m 0s | step 0.20s | KE 126.7477 | drift -0.82% | fluid 68.3993 | solid 58.3484
  Impulse FP iterations last/mean/max 15/14.39/16
Step   900/2000   45.0% | t 45.000 | ETA 3m 40s | step 0.24s | KE 126.4509 | drift -1.05% | fluid 65.2007 | solid 61.2501
  Impulse FP iterations last/mean/max 16/14.39/16
Step  1000/2000   50.0% | t 50.000 | ETA 3m 21s | step 0.21s | KE 126.6043 | drift -0.93% | fluid 66.0024 | solid 60.6020
  Impulse FP iterations last/mean/max 15/14.39/16
Step  1100/2000   55.0% | t 55.000 | ETA 3m 1s | step 0.21s | KE 126.6328 | drift -0.91% | fluid 68.0443 | solid 58.5886
  Impulse FP iterations last/mean/max 14/14.38/16
Step  1200/2000   60.0% | t 60.000 | ETA 2m 41s | step 0.21s | KE 126.6311 | drift -0.91% | fluid 66.6612 | solid 59.9699
  Impulse FP iterations last/mean/max 14/14.38/16
Step  1300/2000   65.0% | t 65.000 | ETA 2m 20s | step 0.21s | KE 126.6881 | drift -0.86% | fluid 67.1815 | solid 59.5066
  Impulse FP iterations last/mean/max 14/14.38/16
Step  1400/2000   70.0% | t 70.000 | ETA 2m 0s | step 0.21s | KE 126.6376 | drift -0.90% | fluid 66.7715 | solid 59.8661
  Impulse FP iterations last/mean/max 14/14.37/16
Step  1500/2000   75.0% | t 75.000 | ETA 1m 40s | step 0.21s | KE 127.1281 | drift -0.52% | fluid 68.4300 | solid 58.6981
  Impulse FP iterations last/mean/max 15/14.37/16
Step  1600/2000   80.0% | t 80.000 | ETA 1m 20s | step 0.21s | KE 125.9691 | drift -1.42% | fluid 67.0873 | solid 58.8818
  Impulse FP iterations last/mean/max 15/14.37/16
Step  1700/2000   85.0% | t 85.000 | ETA 1m 0s | step 0.20s | KE 126.2566 | drift -1.20% | fluid 68.7071 | solid 57.5495
  Impulse FP iterations last/mean/max 15/14.37/16
Step  1800/2000   90.0% | t 90.000 | ETA 40s | step 0.21s | KE 126.5047 | drift -1.01% | fluid 66.9027 | solid 59.6020
  Impulse FP iterations last/mean/max 15/14.38/16
Step  1900/2000   95.0% | t 95.000 | ETA 20s | step 0.21s | KE 126.1943 | drift -1.25% | fluid 64.5909 | solid 61.6035
  Impulse FP iterations last/mean/max 15/14.38/16
Solver finished successfully - good job!
Results saved successfully.

================== Run summary ==================
  Bodies:            2
  Triangles / nodes: 256 / 516
  Timesteps:         2000  (dt = 0.05)
  Simulated time:    0 -> 100
  First-step setup:  0.301 s
  Mean time/step:    0.2019 s  (excl. first step)
  Total wall time:   6m 43s
  Impulse FP iters last/mean/max: 15 / 14.386 / 16
  Approx impulse solves/step:     14.387
  Impulse start cache hits/direct: 1999 / 1
  Impulse global drift P/H:       1.519333e-8 / 1.882630e-2
  Impulse per-body max drift P/H: 2.290393e-8 / 5.840286e-3
  CPU cores:         256 available, 8 Rayon worker thread(s)
  Started:           2026-06-24 01:51:03
  Finished:          2026-06-24 01:57:47
  Output file:       /work/e643/e643/shared/multi_ellip/studies/two_body_paper_sweeps/runs/ellipsoid_1_0p8_0p6/ellipsoid_1_0p8_0p6_rho0p3_E0p55_sep11_run03_impulse_noproj/multiple_body_complete.dat
================================================
