
================ Simulation setup ================
  Run label:         /work/e643/e643/shared/multi_ellip/studies/two_body_paper_sweeps/runs/spheroid_1_0p7_0p7/spheroid_1_0p7_0p7_rho0p1_E4_sep3_run03_impulse_noproj/
  Started:           2026-06-24 02:06:36
  Input file:        /work/e643/e643/shared/multi_ellip/studies/two_body_paper_sweeps/runs/spheroid_1_0p7_0p7/spheroid_1_0p7_0p7_rho0p1_E4_sep3_run03_impulse_noproj/input.txt
  Output file:       /work/e643/e643/shared/multi_ellip/studies/two_body_paper_sweeps/runs/spheroid_1_0p7_0p7/spheroid_1_0p7_0p7_rho0p1_E4_sep3_run03_impulse_noproj/multiple_body_complete.dat
  Bodies:            2
  Fluid density:     1
  Mesh:              ndiv 2 -> 256 triangles / 516 nodes
  Simulated time:    0 -> 100  (dt = 0.05, ~2000 steps)
  Output cadence:    every 1 step(s)
  Output rows:       ~2001
  Progress cadence:  every 100 step(s)
  CPU cores:         256 available, 8 Rayon worker thread(s)
  Strong coupling:   disabled
  Impulse scheme:    enabled
  Hamiltonian step:  disabled
  Hamiltonian midpt: disabled
  Variational step:  disabled
  Energy projection: disabled
  Projection particular metric: Euclidean
  Fluid KE gradient: disabled  (eps = 0.001, scale = 1, linear = 1, angular = 1)
  Fluid KE discrete gradient: disabled
  Impulse pair metric correction: disabled  (mode = pair discrete-gradient, cutoff = all pairs, inner/outer = 0/0, eps = 0.001, linear scale = 1, angular scale = 0)
  Impulse metric correction: disabled  (internal load constraint = disabled)
  Impulse variational defect probe: disabled
  Impulse quadratic pressure: disabled  (scale = 1)
  Added-mass stab:   disabled
  Exact BEM geometry: disabled
  Exact singular BEM: disabled
  Legacy singular SLP diagnostic: disabled
  Phi-dot blend:     0 (off)

  Solver guidance:
    - Strong coupling: use for stiff close-coupled runs; slower but more implicit.
    - Impulse scheme: use when impulse/momentum conservation or KE drift is the focus. Recommended.
    - Added-mass stab: use for higher mesh counts (ndiv > 3) to preserve stability - deprecated.
================================================
Solver starting - good luck!

Initial state:
  Body  1
    density:          0.100000
    shape axes ratio: (1.000000, 0.700000, 0.700000)
    initial KE ratio: 4.000000
    position:         (-1.500000, 0.000000, 0.000000)
    velocity:         (-1.731287, 1.146893, -0.340215)
    angular velocity: (2.720332, -5.375416, 1.784128)
    orientation:      (w=-0.929543, i=0.024559, j=-0.316275, k=-0.187926)
  Body  2
    density:          0.100000
    shape axes ratio: (1.000000, 0.700000, 0.700000)
    initial KE ratio: 4.000000
    position:         (1.500000, 0.000000, 0.000000)
    velocity:         (-1.474369, 0.976697, -0.289728)
    angular velocity: (-6.087596, -1.506476, -0.387453)
    orientation:      (w=0.858144, i=-0.295077, j=0.170293, k=0.384083)

Preparing first step: implicit scheme, no bootstrap passes required.
First step may take longer than later steps.

First step completed in 0.302 s.

Step   100/2000    5.0% | t 5.000 | ETA 7m 26s | step 0.26s | KE 26.7012 | drift +13.59% | fluid 15.0820 | solid 11.6192
  Impulse FP iterations last/mean/max 17/16.74/19
Step   200/2000   10.0% | t 10.000 | ETA 7m 9s | step 0.24s | KE 29.1089 | drift +23.83% | fluid 15.3540 | solid 13.7549
  Impulse FP iterations last/mean/max 17/16.70/19
Step   300/2000   15.0% | t 15.000 | ETA 6m 48s | step 0.22s | KE 31.2008 | drift +32.73% | fluid 16.0764 | solid 15.1243
  Impulse FP iterations last/mean/max 16/16.67/19
Step   400/2000   20.0% | t 20.000 | ETA 6m 23s | step 0.24s | KE 31.2215 | drift +32.82% | fluid 15.7150 | solid 15.5065
  Impulse FP iterations last/mean/max 17/16.60/19
Step   500/2000   25.0% | t 25.000 | ETA 5m 57s | step 0.23s | KE 31.3929 | drift +33.55% | fluid 15.9238 | solid 15.4691
  Impulse FP iterations last/mean/max 16/16.52/19
Step   600/2000   30.0% | t 30.000 | ETA 5m 32s | step 0.23s | KE 31.2629 | drift +33.00% | fluid 15.9087 | solid 15.3543
  Impulse FP iterations last/mean/max 16/16.46/19
Step   700/2000   35.0% | t 35.000 | ETA 5m 7s | step 0.23s | KE 31.4007 | drift +33.58% | fluid 16.0271 | solid 15.3736
  Impulse FP iterations last/mean/max 16/16.40/19
Step   800/2000   40.0% | t 40.000 | ETA 4m 43s | step 0.22s | KE 31.3918 | drift +33.54% | fluid 16.1176 | solid 15.2742
  Impulse FP iterations last/mean/max 15/16.35/19
Step   900/2000   45.0% | t 45.000 | ETA 4m 18s | step 0.22s | KE 31.4476 | drift +33.78% | fluid 15.7174 | solid 15.7303
  Impulse FP iterations last/mean/max 16/16.30/19
Step  1000/2000   50.0% | t 50.000 | ETA 3m 54s | step 0.21s | KE 31.5495 | drift +34.21% | fluid 16.3026 | solid 15.2468
  Impulse FP iterations last/mean/max 15/16.26/19
Step  1100/2000   55.0% | t 55.000 | ETA 3m 30s | step 0.22s | KE 31.5681 | drift +34.29% | fluid 16.0324 | solid 15.5357
  Impulse FP iterations last/mean/max 15/16.22/19
Step  1200/2000   60.0% | t 60.000 | ETA 3m 6s | step 0.21s | KE 31.5238 | drift +34.11% | fluid 16.0502 | solid 15.4736
  Impulse FP iterations last/mean/max 15/16.19/19
Step  1300/2000   65.0% | t 65.000 | ETA 2m 42s | step 0.24s | KE 31.4751 | drift +33.90% | fluid 15.9414 | solid 15.5337
  Impulse FP iterations last/mean/max 16/16.16/19
Step  1400/2000   70.0% | t 70.000 | ETA 2m 19s | step 0.24s | KE 31.5230 | drift +34.10% | fluid 16.0786 | solid 15.4444
  Impulse FP iterations last/mean/max 16/16.12/19
Step  1500/2000   75.0% | t 75.000 | ETA 1m 55s | step 0.23s | KE 31.4933 | drift +33.98% | fluid 16.2869 | solid 15.2063
  Impulse FP iterations last/mean/max 16/16.09/19
Step  1600/2000   80.0% | t 80.000 | ETA 1m 32s | step 0.22s | KE 31.4424 | drift +33.76% | fluid 15.7439 | solid 15.6984
  Impulse FP iterations last/mean/max 15/16.07/19
Step  1700/2000   85.0% | t 85.000 | ETA 1m 9s | step 0.22s | KE 31.4440 | drift +33.77% | fluid 16.1457 | solid 15.2984
  Impulse FP iterations last/mean/max 16/16.04/19
Step  1800/2000   90.0% | t 90.000 | ETA 45s | step 0.18s | KE 31.4870 | drift +33.95% | fluid 16.0096 | solid 15.4774
  Impulse FP iterations last/mean/max 16/16.02/19
Step  1900/2000   95.0% | t 95.000 | ETA 22s | step 0.18s | KE 31.4617 | drift +33.84% | fluid 16.1359 | solid 15.3258
  Impulse FP iterations last/mean/max 16/15.99/19
Solver finished successfully - good job!
Results saved successfully.

================== Run summary ==================
  Bodies:            2
  Triangles / nodes: 256 / 516
  Timesteps:         2000  (dt = 0.05)
  Simulated time:    0 -> 100
  First-step setup:  0.302 s
  Mean time/step:    0.2245 s  (excl. first step)
  Total wall time:   7m 28s
  Impulse FP iters last/mean/max: 17 / 15.979 / 19
  Approx impulse solves/step:     15.979
  Impulse start cache hits/direct: 1999 / 1
  Impulse global drift P/H:       1.603049e-8 / 1.152750e-1
  Impulse per-body max drift P/H: 3.170844e-8 / 5.283143e-2
  CPU cores:         256 available, 8 Rayon worker thread(s)
  Started:           2026-06-24 02:06:36
  Finished:          2026-06-24 02:14:05
  Output file:       /work/e643/e643/shared/multi_ellip/studies/two_body_paper_sweeps/runs/spheroid_1_0p7_0p7/spheroid_1_0p7_0p7_rho0p1_E4_sep3_run03_impulse_noproj/multiple_body_complete.dat
================================================
