
================ Simulation setup ================
  Run label:         /work/e643/e643/shared/multi_ellip/studies/two_body_paper_sweeps/runs/ellipsoid_1_0p8_0p6/ellipsoid_1_0p8_0p6_rho1_E4_sep3_run02_impulse_noproj/
  Started:           2026-06-22 19:34:43
  Input file:        /work/e643/e643/shared/multi_ellip/studies/two_body_paper_sweeps/runs/ellipsoid_1_0p8_0p6/ellipsoid_1_0p8_0p6_rho1_E4_sep3_run02_impulse_noproj/input.txt
  Output file:       /work/e643/e643/shared/multi_ellip/studies/two_body_paper_sweeps/runs/ellipsoid_1_0p8_0p6/ellipsoid_1_0p8_0p6_rho1_E4_sep3_run02_impulse_noproj/multiple_body_complete.dat
  Bodies:            2
  Fluid density:     1
  Mesh:              ndiv 2 -> 256 triangles / 516 nodes
  Simulated time:    0 -> 100  (dt = 0.05, ~2000 steps)
  Output cadence:    every 1 step(s)
  Output rows:       ~2001
  Progress cadence:  every 100 step(s)
  CPU cores:         256 available, 8 Rayon worker thread(s)
  Strong coupling:   disabled
  Impulse scheme:    enabled
  Hamiltonian step:  disabled
  Hamiltonian midpt: disabled
  Variational step:  disabled
  Energy projection: disabled
  Projection particular metric: Euclidean
  Fluid KE gradient: disabled  (eps = 0.001, scale = 1, linear = 1, angular = 1)
  Fluid KE discrete gradient: disabled
  Impulse pair metric correction: disabled  (mode = pair discrete-gradient, cutoff = all pairs, inner/outer = 0/0, eps = 0.001, linear scale = 1, angular scale = 0)
  Impulse metric correction: disabled  (internal load constraint = disabled)
  Impulse variational defect probe: disabled
  Impulse quadratic pressure: disabled  (scale = 1)
  Added-mass stab:   disabled
  Exact BEM geometry: disabled
  Exact singular BEM: disabled
  Legacy singular SLP diagnostic: disabled
  Phi-dot blend:     0 (off)

  Solver guidance:
    - Strong coupling: use for stiff close-coupled runs; slower but more implicit.
    - Impulse scheme: use when impulse/momentum conservation or KE drift is the focus. Recommended.
    - Added-mass stab: use for higher mesh counts (ndiv > 3) to preserve stability - deprecated.
================================================
Solver starting - good luck!

Initial state:
  Body  1
    density:          1.000000
    shape axes ratio: (1.000000, 0.800000, 0.600000)
    initial KE ratio: 4.000000
    position:         (-1.500000, 0.000000, 0.000000)
    velocity:         (-2.130789, -0.846261, 0.104450)
    angular velocity: (-0.503132, -0.022324, 6.262969)
    orientation:      (w=0.577350, i=0.577350, j=0.577350, k=0.000000)
  Body  2
    density:          1.000000
    shape axes ratio: (1.000000, 0.800000, 0.600000)
    initial KE ratio: 4.000000
    position:         (1.500000, 0.000000, 0.000000)
    velocity:         (-1.845109, -0.732800, 0.090446)
    angular velocity: (-4.132082, -4.387998, -1.774766)
    orientation:      (w=0.577350, i=-0.577350, j=0.000000, k=0.577350)

Preparing first step: implicit scheme, no bootstrap passes required.
First step may take longer than later steps.

First step completed in 0.339 s.

Step   100/2000    5.0% | t 5.000 | ETA 5m 0s | step 0.14s | KE 101.9376 | drift -2.42% | fluid 18.8475 | solid 83.0901
  Impulse FP iterations last/mean/max 11/11.39/12
Step   200/2000   10.0% | t 10.000 | ETA 4m 41s | step 0.15s | KE 101.7109 | drift -2.64% | fluid 14.2549 | solid 87.4560
  Impulse FP iterations last/mean/max 11/11.27/12
Step   300/2000   15.0% | t 15.000 | ETA 4m 22s | step 0.15s | KE 101.5628 | drift -2.78% | fluid 17.5402 | solid 84.0226
  Impulse FP iterations last/mean/max 11/11.16/12
Step   400/2000   20.0% | t 20.000 | ETA 4m 5s | step 0.16s | KE 101.5128 | drift -2.83% | fluid 17.9337 | solid 83.5791
  Impulse FP iterations last/mean/max 11/11.10/12
Step   500/2000   25.0% | t 25.000 | ETA 3m 48s | step 0.16s | KE 101.5504 | drift -2.79% | fluid 13.2889 | solid 88.2615
  Impulse FP iterations last/mean/max 11/11.06/12
Step   600/2000   30.0% | t 30.000 | ETA 3m 33s | step 0.15s | KE 101.3923 | drift -2.94% | fluid 16.3596 | solid 85.0327
  Impulse FP iterations last/mean/max 11/11.03/12
Step   700/2000   35.0% | t 35.000 | ETA 3m 17s | step 0.16s | KE 101.4154 | drift -2.92% | fluid 17.5283 | solid 83.8871
  Impulse FP iterations last/mean/max 11/11.00/12
Step   800/2000   40.0% | t 40.000 | ETA 3m 1s | step 0.16s | KE 101.3289 | drift -3.00% | fluid 14.0654 | solid 87.2636
  Impulse FP iterations last/mean/max 11/10.97/12
Step   900/2000   45.0% | t 45.000 | ETA 2m 45s | step 0.14s | KE 101.3679 | drift -2.97% | fluid 16.8461 | solid 84.5218
  Impulse FP iterations last/mean/max 11/10.95/12
Step  1000/2000   50.0% | t 50.000 | ETA 2m 30s | step 0.15s | KE 101.3054 | drift -3.03% | fluid 16.2751 | solid 85.0303
  Impulse FP iterations last/mean/max 11/10.94/12
Step  1100/2000   55.0% | t 55.000 | ETA 2m 15s | step 0.15s | KE 101.3120 | drift -3.02% | fluid 12.4156 | solid 88.8964
  Impulse FP iterations last/mean/max 11/10.93/12
Step  1200/2000   60.0% | t 60.000 | ETA 2m 0s | step 0.14s | KE 101.2954 | drift -3.04% | fluid 14.7155 | solid 86.5799
  Impulse FP iterations last/mean/max 10/10.93/12
Step  1300/2000   65.0% | t 65.000 | ETA 1m 45s | step 0.13s | KE 101.2707 | drift -3.06% | fluid 15.0299 | solid 86.2408
  Impulse FP iterations last/mean/max 10/10.92/12
Step  1400/2000   70.0% | t 70.000 | ETA 1m 29s | step 0.16s | KE 101.2529 | drift -3.08% | fluid 12.2655 | solid 88.9873
  Impulse FP iterations last/mean/max 11/10.91/12
Step  1500/2000   75.0% | t 75.000 | ETA 1m 14s | step 0.15s | KE 101.2486 | drift -3.08% | fluid 16.5347 | solid 84.7139
  Impulse FP iterations last/mean/max 11/10.91/12
Step  1600/2000   80.0% | t 80.000 | ETA 59s | step 0.15s | KE 101.2301 | drift -3.10% | fluid 15.6780 | solid 85.5521
  Impulse FP iterations last/mean/max 11/10.91/12
Step  1700/2000   85.0% | t 85.000 | ETA 44s | step 0.15s | KE 101.2171 | drift -3.11% | fluid 12.9008 | solid 88.3163
  Impulse FP iterations last/mean/max 11/10.90/12
Step  1800/2000   90.0% | t 90.000 | ETA 29s | step 0.15s | KE 101.1353 | drift -3.19% | fluid 17.7232 | solid 83.4121
  Impulse FP iterations last/mean/max 11/10.90/12
Step  1900/2000   95.0% | t 95.000 | ETA 14s | step 0.15s | KE 101.2343 | drift -3.09% | fluid 14.1244 | solid 87.1099
  Impulse FP iterations last/mean/max 11/10.90/12
Solver finished successfully - good job!
Results saved successfully.

================== Run summary ==================
  Bodies:            2
  Triangles / nodes: 256 / 516
  Timesteps:         2000  (dt = 0.05)
  Simulated time:    0 -> 100
  First-step setup:  0.339 s
  Mean time/step:    0.1489 s  (excl. first step)
  Total wall time:   4m 58s
  Impulse FP iters last/mean/max: 11 / 10.890 / 12
  Approx impulse solves/step:     10.891
  Impulse start cache hits/direct: 1999 / 1
  Impulse global drift P/H:       2.023170e-8 / 1.614945e-2
  Impulse per-body max drift P/H: 2.912525e-8 / 1.125491e-2
  CPU cores:         256 available, 8 Rayon worker thread(s)
  Started:           2026-06-22 19:34:43
  Finished:          2026-06-22 19:39:41
  Output file:       /work/e643/e643/shared/multi_ellip/studies/two_body_paper_sweeps/runs/ellipsoid_1_0p8_0p6/ellipsoid_1_0p8_0p6_rho1_E4_sep3_run02_impulse_noproj/multiple_body_complete.dat
================================================
