
================ Simulation setup ================
  Run label:         /work/e643/e643/shared/multi_ellip/studies/two_body_paper_sweeps/runs/ellipsoid_1_0p8_0p6/ellipsoid_1_0p8_0p6_rho0p3_E4_sep5_run04_impulse_noproj/
  Started:           2026-06-24 01:58:11
  Input file:        /work/e643/e643/shared/multi_ellip/studies/two_body_paper_sweeps/runs/ellipsoid_1_0p8_0p6/ellipsoid_1_0p8_0p6_rho0p3_E4_sep5_run04_impulse_noproj/input.txt
  Output file:       /work/e643/e643/shared/multi_ellip/studies/two_body_paper_sweeps/runs/ellipsoid_1_0p8_0p6/ellipsoid_1_0p8_0p6_rho0p3_E4_sep5_run04_impulse_noproj/multiple_body_complete.dat
  Bodies:            2
  Fluid density:     1
  Mesh:              ndiv 2 -> 256 triangles / 516 nodes
  Simulated time:    0 -> 100  (dt = 0.05, ~2000 steps)
  Output cadence:    every 1 step(s)
  Output rows:       ~2001
  Progress cadence:  every 100 step(s)
  CPU cores:         256 available, 8 Rayon worker thread(s)
  Strong coupling:   disabled
  Impulse scheme:    enabled
  Hamiltonian step:  disabled
  Hamiltonian midpt: disabled
  Variational step:  disabled
  Energy projection: disabled
  Projection particular metric: Euclidean
  Fluid KE gradient: disabled  (eps = 0.001, scale = 1, linear = 1, angular = 1)
  Fluid KE discrete gradient: disabled
  Impulse pair metric correction: disabled  (mode = pair discrete-gradient, cutoff = all pairs, inner/outer = 0/0, eps = 0.001, linear scale = 1, angular scale = 0)
  Impulse metric correction: disabled  (internal load constraint = disabled)
  Impulse variational defect probe: disabled
  Impulse quadratic pressure: disabled  (scale = 1)
  Added-mass stab:   disabled
  Exact BEM geometry: disabled
  Exact singular BEM: disabled
  Legacy singular SLP diagnostic: disabled
  Phi-dot blend:     0 (off)

  Solver guidance:
    - Strong coupling: use for stiff close-coupled runs; slower but more implicit.
    - Impulse scheme: use when impulse/momentum conservation or KE drift is the focus. Recommended.
    - Added-mass stab: use for higher mesh counts (ndiv > 3) to preserve stability - deprecated.
================================================
Solver starting - good luck!

Initial state:
  Body  1
    density:          0.300000
    shape axes ratio: (1.000000, 0.800000, 0.600000)
    initial KE ratio: 4.000000
    position:         (-2.500000, 0.000000, 0.000000)
    velocity:         (1.133938, 1.447466, -0.429905)
    angular velocity: (5.426896, -2.787639, 1.502092)
    orientation:      (w=-0.418744, i=0.550871, j=0.475372, k=-0.543338)
  Body  2
    density:          0.300000
    shape axes ratio: (1.000000, 0.800000, 0.600000)
    initial KE ratio: 4.000000
    position:         (2.500000, 0.000000, 0.000000)
    velocity:         (1.142652, 1.458590, -0.433209)
    angular velocity: (5.391487, 2.497452, 2.042795)
    orientation:      (w=-0.153571, i=0.035148, j=0.374621, k=-0.913696)

Preparing first step: implicit scheme, no bootstrap passes required.
First step may take longer than later steps.

First step completed in 0.297 s.

Step   100/2000    5.0% | t 5.000 | ETA 6m 1s | step 0.21s | KE 37.4890 | drift -9.36% | fluid 15.5875 | solid 21.9015
  Impulse FP iterations last/mean/max 14/13.98/15
Step   200/2000   10.0% | t 10.000 | ETA 5m 52s | step 0.19s | KE 37.0165 | drift -10.50% | fluid 14.2321 | solid 22.7844
  Impulse FP iterations last/mean/max 13/13.96/15
Step   300/2000   15.0% | t 15.000 | ETA 5m 34s | step 0.19s | KE 36.9962 | drift -10.55% | fluid 15.9702 | solid 21.0260
  Impulse FP iterations last/mean/max 14/13.94/15
Step   400/2000   20.0% | t 20.000 | ETA 5m 15s | step 0.20s | KE 36.9827 | drift -10.58% | fluid 15.7650 | solid 21.2178
  Impulse FP iterations last/mean/max 15/13.88/15
Step   500/2000   25.0% | t 25.000 | ETA 4m 56s | step 0.18s | KE 37.0378 | drift -10.45% | fluid 14.4376 | solid 22.6002
  Impulse FP iterations last/mean/max 13/13.87/15
Step   600/2000   30.0% | t 30.000 | ETA 4m 37s | step 0.21s | KE 37.0210 | drift -10.49% | fluid 15.1027 | solid 21.9183
  Impulse FP iterations last/mean/max 14/13.87/15
Step   700/2000   35.0% | t 35.000 | ETA 4m 17s | step 0.20s | KE 37.0572 | drift -10.40% | fluid 13.8691 | solid 23.1881
  Impulse FP iterations last/mean/max 14/13.83/15
Step   800/2000   40.0% | t 40.000 | ETA 3m 57s | step 0.21s | KE 37.0124 | drift -10.51% | fluid 14.9897 | solid 22.0227
  Impulse FP iterations last/mean/max 14/13.82/15
Step   900/2000   45.0% | t 45.000 | ETA 3m 37s | step 0.21s | KE 37.0168 | drift -10.50% | fluid 14.2174 | solid 22.7994
  Impulse FP iterations last/mean/max 14/13.82/15
Step  1000/2000   50.0% | t 50.000 | ETA 3m 17s | step 0.18s | KE 36.9909 | drift -10.56% | fluid 13.8751 | solid 23.1158
  Impulse FP iterations last/mean/max 13/13.81/15
Step  1100/2000   55.0% | t 55.000 | ETA 2m 58s | step 0.19s | KE 37.0675 | drift -10.38% | fluid 15.0758 | solid 21.9917
  Impulse FP iterations last/mean/max 13/13.80/15
Step  1200/2000   60.0% | t 60.000 | ETA 2m 38s | step 0.19s | KE 37.0632 | drift -10.39% | fluid 13.3318 | solid 23.7314
  Impulse FP iterations last/mean/max 13/13.79/15
Step  1300/2000   65.0% | t 65.000 | ETA 2m 18s | step 0.20s | KE 37.0340 | drift -10.46% | fluid 13.2149 | solid 23.8191
  Impulse FP iterations last/mean/max 14/13.77/15
Step  1400/2000   70.0% | t 70.000 | ETA 1m 58s | step 0.20s | KE 37.0932 | drift -10.31% | fluid 15.0529 | solid 22.0403
  Impulse FP iterations last/mean/max 14/13.77/15
Step  1500/2000   75.0% | t 75.000 | ETA 1m 38s | step 0.19s | KE 37.0668 | drift -10.38% | fluid 13.9702 | solid 23.0967
  Impulse FP iterations last/mean/max 13/13.77/15
Step  1600/2000   80.0% | t 80.000 | ETA 1m 18s | step 0.21s | KE 37.0458 | drift -10.43% | fluid 13.3268 | solid 23.7190
  Impulse FP iterations last/mean/max 14/13.76/15
Step  1700/2000   85.0% | t 85.000 | ETA 59s | step 0.20s | KE 37.0206 | drift -10.49% | fluid 14.5235 | solid 22.4971
  Impulse FP iterations last/mean/max 14/13.76/15
Step  1800/2000   90.0% | t 90.000 | ETA 39s | step 0.19s | KE 37.0822 | drift -10.34% | fluid 15.9329 | solid 21.1492
  Impulse FP iterations last/mean/max 14/13.75/15
Step  1900/2000   95.0% | t 95.000 | ETA 19s | step 0.21s | KE 37.0684 | drift -10.37% | fluid 14.1677 | solid 22.9007
  Impulse FP iterations last/mean/max 14/13.75/15
Solver finished successfully - good job!
Results saved successfully.

================== Run summary ==================
  Bodies:            2
  Triangles / nodes: 256 / 516
  Timesteps:         2000  (dt = 0.05)
  Simulated time:    0 -> 100
  First-step setup:  0.297 s
  Mean time/step:    0.1971 s  (excl. first step)
  Total wall time:   6m 34s
  Impulse FP iters last/mean/max: 14 / 13.735 / 15
  Approx impulse solves/step:     13.735
  Impulse start cache hits/direct: 1999 / 1
  Impulse global drift P/H:       3.680650e-8 / 9.027585e-3
  Impulse per-body max drift P/H: 4.730833e-8 / 6.829919e-3
  CPU cores:         256 available, 8 Rayon worker thread(s)
  Started:           2026-06-24 01:58:11
  Finished:          2026-06-24 02:04:46
  Output file:       /work/e643/e643/shared/multi_ellip/studies/two_body_paper_sweeps/runs/ellipsoid_1_0p8_0p6/ellipsoid_1_0p8_0p6_rho0p3_E4_sep5_run04_impulse_noproj/multiple_body_complete.dat
================================================
