
================ Simulation setup ================
  Run label:         /work/e643/e643/shared/multi_ellip/studies/two_body_paper_sweeps/runs/spheroid_1_0p7_0p7/spheroid_1_0p7_0p7_rho4_E0p55_sep8_run03_impulse_noproj/
  Started:           2026-06-24 01:21:58
  Input file:        /work/e643/e643/shared/multi_ellip/studies/two_body_paper_sweeps/runs/spheroid_1_0p7_0p7/spheroid_1_0p7_0p7_rho4_E0p55_sep8_run03_impulse_noproj/input.txt
  Output file:       /work/e643/e643/shared/multi_ellip/studies/two_body_paper_sweeps/runs/spheroid_1_0p7_0p7/spheroid_1_0p7_0p7_rho4_E0p55_sep8_run03_impulse_noproj/multiple_body_complete.dat
  Bodies:            2
  Fluid density:     1
  Mesh:              ndiv 2 -> 256 triangles / 516 nodes
  Simulated time:    0 -> 100  (dt = 0.05, ~2000 steps)
  Output cadence:    every 1 step(s)
  Output rows:       ~2001
  Progress cadence:  every 100 step(s)
  CPU cores:         256 available, 8 Rayon worker thread(s)
  Strong coupling:   disabled
  Impulse scheme:    enabled
  Hamiltonian step:  disabled
  Hamiltonian midpt: disabled
  Variational step:  disabled
  Energy projection: disabled
  Projection particular metric: Euclidean
  Fluid KE gradient: disabled  (eps = 0.001, scale = 1, linear = 1, angular = 1)
  Fluid KE discrete gradient: disabled
  Impulse pair metric correction: disabled  (mode = pair discrete-gradient, cutoff = all pairs, inner/outer = 0/0, eps = 0.001, linear scale = 1, angular scale = 0)
  Impulse metric correction: disabled  (internal load constraint = disabled)
  Impulse variational defect probe: disabled
  Impulse quadratic pressure: disabled  (scale = 1)
  Added-mass stab:   disabled
  Exact BEM geometry: disabled
  Exact singular BEM: disabled
  Legacy singular SLP diagnostic: disabled
  Phi-dot blend:     0 (off)

  Solver guidance:
    - Strong coupling: use for stiff close-coupled runs; slower but more implicit.
    - Impulse scheme: use when impulse/momentum conservation or KE drift is the focus. Recommended.
    - Added-mass stab: use for higher mesh counts (ndiv > 3) to preserve stability - deprecated.
================================================
Solver starting - good luck!

Initial state:
  Body  1
    density:          4.000000
    shape axes ratio: (1.000000, 0.700000, 0.700000)
    initial KE ratio: 0.550000
    position:         (-4.000000, 0.000000, 0.000000)
    velocity:         (2.918487, -4.568998, 2.206263)
    angular velocity: (-0.718914, -5.098838, 3.600477)
    orientation:      (w=0.872313, i=0.083010, j=-0.136920, k=-0.461987)
  Body  2
    density:          4.000000
    shape axes ratio: (1.000000, 0.700000, 0.700000)
    initial KE ratio: 0.550000
    position:         (4.000000, 0.000000, 0.000000)
    velocity:         (2.786416, -4.362235, 2.106422)
    angular velocity: (-3.267090, 5.111848, -1.635101)
    orientation:      (w=0.139229, i=-0.240240, j=0.561790, k=0.779289)

Preparing first step: implicit scheme, no bootstrap passes required.
First step may take longer than later steps.

First step completed in 0.317 s.

Step   100/2000    5.0% | t 5.000 | ETA 3m 29s | step 0.10s | KE 897.2241 | drift +0.75% | fluid 82.8702 | solid 814.3539
  Impulse FP iterations last/mean/max 7/7.61/8
Step   200/2000   10.0% | t 10.000 | ETA 3m 17s | step 0.12s | KE 903.9075 | drift +1.50% | fluid 71.6056 | solid 832.3019
  Impulse FP iterations last/mean/max 8/7.59/8
Step   300/2000   15.0% | t 15.000 | ETA 3m 7s | step 0.11s | KE 911.7459 | drift +2.38% | fluid 87.5854 | solid 824.1605
  Impulse FP iterations last/mean/max 8/7.64/8
Step   400/2000   20.0% | t 20.000 | ETA 2m 57s | step 0.11s | KE 925.7694 | drift +3.96% | fluid 82.4420 | solid 843.3275
  Impulse FP iterations last/mean/max 8/7.67/8
Step   500/2000   25.0% | t 25.000 | ETA 2m 47s | step 0.12s | KE 941.1861 | drift +5.69% | fluid 84.3718 | solid 856.8143
  Impulse FP iterations last/mean/max 8/7.71/8
Step   600/2000   30.0% | t 30.000 | ETA 2m 33s | step 0.10s | KE 950.0918 | drift +6.69% | fluid 80.4051 | solid 869.6867
  Impulse FP iterations last/mean/max 8/7.71/8
Step   700/2000   35.0% | t 35.000 | ETA 2m 20s | step 0.10s | KE 953.9513 | drift +7.12% | fluid 79.1099 | solid 874.8414
  Impulse FP iterations last/mean/max 8/7.71/8
Step   800/2000   40.0% | t 40.000 | ETA 2m 9s | step 0.10s | KE 955.2971 | drift +7.27% | fluid 81.0323 | solid 874.2647
  Impulse FP iterations last/mean/max 7/7.69/8
Step   900/2000   45.0% | t 45.000 | ETA 1m 58s | step 0.11s | KE 954.1397 | drift +7.14% | fluid 80.0352 | solid 874.1045
  Impulse FP iterations last/mean/max 7/7.67/8
Step  1000/2000   50.0% | t 50.000 | ETA 1m 47s | step 0.12s | KE 953.1168 | drift +7.03% | fluid 77.0591 | solid 876.0577
  Impulse FP iterations last/mean/max 8/7.64/8
Step  1100/2000   55.0% | t 55.000 | ETA 1m 36s | step 0.10s | KE 951.8537 | drift +6.88% | fluid 86.2113 | solid 865.6425
  Impulse FP iterations last/mean/max 7/7.62/8
Step  1200/2000   60.0% | t 60.000 | ETA 1m 26s | step 0.09s | KE 950.1108 | drift +6.69% | fluid 83.9917 | solid 866.1191
  Impulse FP iterations last/mean/max 7/7.61/8
Step  1300/2000   65.0% | t 65.000 | ETA 1m 15s | step 0.11s | KE 948.9097 | drift +6.55% | fluid 69.2267 | solid 879.6830
  Impulse FP iterations last/mean/max 8/7.59/8
Step  1400/2000   70.0% | t 70.000 | ETA 1m 4s | step 0.12s | KE 947.3447 | drift +6.38% | fluid 82.4143 | solid 864.9304
  Impulse FP iterations last/mean/max 8/7.58/8
Step  1500/2000   75.0% | t 75.000 | ETA 53s | step 0.10s | KE 946.7951 | drift +6.32% | fluid 86.2161 | solid 860.5790
  Impulse FP iterations last/mean/max 7/7.57/8
Step  1600/2000   80.0% | t 80.000 | ETA 42s | step 0.09s | KE 946.1245 | drift +6.24% | fluid 83.1197 | solid 863.0047
  Impulse FP iterations last/mean/max 7/7.56/8
Step  1700/2000   85.0% | t 85.000 | ETA 32s | step 0.10s | KE 945.4845 | drift +6.17% | fluid 76.9907 | solid 868.4937
  Impulse FP iterations last/mean/max 8/7.55/8
Step  1800/2000   90.0% | t 90.000 | ETA 21s | step 0.08s | KE 945.3143 | drift +6.15% | fluid 72.2389 | solid 873.0754
  Impulse FP iterations last/mean/max 7/7.54/8
Step  1900/2000   95.0% | t 95.000 | ETA 10s | step 0.09s | KE 944.5901 | drift +6.07% | fluid 85.7187 | solid 858.8714
  Impulse FP iterations last/mean/max 7/7.53/8
Solver finished successfully - good job!
Results saved successfully.

================== Run summary ==================
  Bodies:            2
  Triangles / nodes: 256 / 516
  Timesteps:         2000  (dt = 0.05)
  Simulated time:    0 -> 100
  First-step setup:  0.317 s
  Mean time/step:    0.1041 s  (excl. first step)
  Total wall time:   3m 28s
  Impulse FP iters last/mean/max: 7 / 7.523 / 8
  Approx impulse solves/step:     7.523
  Impulse start cache hits/direct: 1999 / 1
  Impulse global drift P/H:       4.456439e-9 / 1.532199e-2
  Impulse per-body max drift P/H: 7.281616e-9 / 1.247585e-3
  CPU cores:         256 available, 8 Rayon worker thread(s)
  Started:           2026-06-24 01:21:58
  Finished:          2026-06-24 01:25:27
  Output file:       /work/e643/e643/shared/multi_ellip/studies/two_body_paper_sweeps/runs/spheroid_1_0p7_0p7/spheroid_1_0p7_0p7_rho4_E0p55_sep8_run03_impulse_noproj/multiple_body_complete.dat
================================================
