
================ Simulation setup ================
  Run label:         /work/e643/e643/shared/multi_ellip/studies/departing_sphericity_sweep/runs/spheroid_oblate/homogeneous/spheroid_oblate_homogeneous_eps0p001_rho1_E0p5_sep8_run07_impulse_noproj/
  Started:           2026-06-24 02:26:24
  Input file:        /work/e643/e643/shared/multi_ellip/studies/departing_sphericity_sweep/runs/spheroid_oblate/homogeneous/spheroid_oblate_homogeneous_eps0p001_rho1_E0p5_sep8_run07_impulse_noproj/input.txt
  Output file:       /work/e643/e643/shared/multi_ellip/studies/departing_sphericity_sweep/runs/spheroid_oblate/homogeneous/spheroid_oblate_homogeneous_eps0p001_rho1_E0p5_sep8_run07_impulse_noproj/multiple_body_complete.dat
  Bodies:            2
  Fluid density:     1
  Mesh:              ndiv 2 -> 256 triangles / 516 nodes
  Simulated time:    0 -> 100  (dt = 0.05, ~2000 steps)
  Output cadence:    every 1 step(s)
  Output rows:       ~2001
  Progress cadence:  every 100 step(s)
  CPU cores:         256 available, 8 Rayon worker thread(s)
  Strong coupling:   disabled
  Impulse scheme:    enabled
  Hamiltonian step:  disabled
  Hamiltonian midpt: disabled
  Variational step:  disabled
  Energy projection: disabled
  Projection particular metric: Euclidean
  Fluid KE gradient: disabled  (eps = 0.001, scale = 1, linear = 1, angular = 1)
  Fluid KE discrete gradient: disabled
  Impulse pair metric correction: disabled  (mode = pair discrete-gradient, cutoff = all pairs, inner/outer = 0/0, eps = 0.001, linear scale = 1, angular scale = 0)
  Impulse metric correction: disabled  (internal load constraint = disabled)
  Impulse variational defect probe: disabled
  Impulse quadratic pressure: disabled  (scale = 1)
  Added-mass stab:   disabled
  Exact BEM geometry: disabled
  Exact singular BEM: disabled
  Legacy singular SLP diagnostic: disabled
  Phi-dot blend:     0 (off)

  Solver guidance:
    - Strong coupling: use for stiff close-coupled runs; slower but more implicit.
    - Impulse scheme: use when impulse/momentum conservation or KE drift is the focus. Recommended.
    - Added-mass stab: use for higher mesh counts (ndiv > 3) to preserve stability - deprecated.
================================================
Solver starting - good luck!

Initial state:
  Body  1
    density:          1.000000
    shape axes ratio: (1.000000, 1.000000, 0.997006)
    initial KE ratio: 0.500000
    position:         (-4.000000, 0.000000, 0.000000)
    velocity:         (1.800979, -0.943977, -5.236270)
    angular velocity: (3.480430, 5.158431, -0.869259)
    orientation:      (w=-0.190034, i=-0.545167, j=-0.577011, k=-0.577701)
  Body  2
    density:          1.000000
    shape axes ratio: (1.000000, 1.000000, 0.997006)
    initial KE ratio: 0.500000
    position:         (4.000000, 0.000000, 0.000000)
    velocity:         (1.801483, -0.944241, -5.237735)
    angular velocity: (-2.410872, 5.053632, -2.850774)
    orientation:      (w=0.353834, i=0.548382, j=0.348097, k=-0.672984)

Preparing first step: implicit scheme, no bootstrap passes required.
First step may take longer than later steps.

First step completed in 0.231 s.

Step   100/2000    5.0% | t 5.000 | ETA 3m 5s | step 0.10s | KE 260.6223 | drift -3.76% | fluid 72.4212 | solid 188.2011
  Impulse FP iterations last/mean/max 8/7.82/8
Step   200/2000   10.0% | t 10.000 | ETA 3m 0s | step 0.10s | KE 251.5359 | drift -7.12% | fluid 72.4624 | solid 179.0735
  Impulse FP iterations last/mean/max 8/7.78/8
Step   300/2000   15.0% | t 15.000 | ETA 2m 50s | step 0.10s | KE 243.5466 | drift -10.07% | fluid 72.4620 | solid 171.0846
  Impulse FP iterations last/mean/max 7/7.72/8
Step   400/2000   20.0% | t 20.000 | ETA 2m 40s | step 0.09s | KE 236.6498 | drift -12.61% | fluid 72.4160 | solid 164.2338
  Impulse FP iterations last/mean/max 7/7.66/8
Step   500/2000   25.0% | t 25.000 | ETA 2m 29s | step 0.09s | KE 230.8284 | drift -14.76% | fluid 72.4579 | solid 158.3705
  Impulse FP iterations last/mean/max 7/7.59/8
Step   600/2000   30.0% | t 30.000 | ETA 2m 18s | step 0.09s | KE 226.0759 | drift -16.52% | fluid 72.4620 | solid 153.6139
  Impulse FP iterations last/mean/max 7/7.54/8
Step   700/2000   35.0% | t 35.000 | ETA 2m 8s | step 0.09s | KE 222.3739 | drift -17.88% | fluid 72.4082 | solid 149.9657
  Impulse FP iterations last/mean/max 7/7.49/8
Step   800/2000   40.0% | t 40.000 | ETA 1m 57s | step 0.09s | KE 219.6905 | drift -18.88% | fluid 72.4217 | solid 147.2687
  Impulse FP iterations last/mean/max 7/7.43/8
Step   900/2000   45.0% | t 45.000 | ETA 1m 47s | step 0.09s | KE 218.0019 | drift -19.50% | fluid 72.4020 | solid 145.5999
  Impulse FP iterations last/mean/max 7/7.38/8
Step  1000/2000   50.0% | t 50.000 | ETA 1m 36s | step 0.09s | KE 217.2710 | drift -19.77% | fluid 72.4354 | solid 144.8356
  Impulse FP iterations last/mean/max 7/7.34/8
Step  1100/2000   55.0% | t 55.000 | ETA 1m 26s | step 0.09s | KE 217.4709 | drift -19.70% | fluid 72.4377 | solid 145.0332
  Impulse FP iterations last/mean/max 7/7.31/8
Step  1200/2000   60.0% | t 60.000 | ETA 1m 16s | step 0.10s | KE 218.5622 | drift -19.29% | fluid 72.4188 | solid 146.1434
  Impulse FP iterations last/mean/max 7/7.29/8
Step  1300/2000   65.0% | t 65.000 | ETA 1m 7s | step 0.09s | KE 220.5262 | drift -18.57% | fluid 72.4042 | solid 148.1219
  Impulse FP iterations last/mean/max 7/7.27/8
Step  1400/2000   70.0% | t 70.000 | ETA 56s | step 0.08s | KE 223.3655 | drift -17.52% | fluid 72.4393 | solid 150.9262
  Impulse FP iterations last/mean/max 7/7.26/8
Step  1500/2000   75.0% | t 75.000 | ETA 47s | step 0.09s | KE 227.0770 | drift -16.15% | fluid 72.4772 | solid 154.5998
  Impulse FP iterations last/mean/max 7/7.26/8
Step  1600/2000   80.0% | t 80.000 | ETA 37s | step 0.09s | KE 231.6902 | drift -14.44% | fluid 72.4308 | solid 159.2595
  Impulse FP iterations last/mean/max 8/7.27/8
Step  1700/2000   85.0% | t 85.000 | ETA 28s | step 0.11s | KE 237.2276 | drift -12.40% | fluid 72.4704 | solid 164.7572
  Impulse FP iterations last/mean/max 8/7.29/8
Step  1800/2000   90.0% | t 90.000 | ETA 18s | step 0.09s | KE 243.7300 | drift -10.00% | fluid 72.4067 | solid 171.3233
  Impulse FP iterations last/mean/max 7/7.31/8
Step  1900/2000   95.0% | t 95.000 | ETA 9s | step 0.11s | KE 251.2212 | drift -7.23% | fluid 72.4179 | solid 178.8033
  Impulse FP iterations last/mean/max 8/7.33/8
Solver finished successfully - good job!
Results saved successfully.

================== Run summary ==================
  Bodies:            2
  Triangles / nodes: 256 / 516
  Timesteps:         2000  (dt = 0.05)
  Simulated time:    0 -> 100
  First-step setup:  0.231 s
  Mean time/step:    0.0950 s  (excl. first step)
  Total wall time:   3m 10s
  Impulse FP iters last/mean/max: 8 / 7.349 / 8
  Approx impulse solves/step:     7.349
  Impulse start cache hits/direct: 1999 / 1
  Impulse global drift P/H:       1.773655e-8 / 4.607460e-3
  Impulse per-body max drift P/H: 3.479649e-8 / 4.038181e-4
  CPU cores:         256 available, 8 Rayon worker thread(s)
  Started:           2026-06-24 02:26:24
  Finished:          2026-06-24 02:29:35
  Output file:       /work/e643/e643/shared/multi_ellip/studies/departing_sphericity_sweep/runs/spheroid_oblate/homogeneous/spheroid_oblate_homogeneous_eps0p001_rho1_E0p5_sep8_run07_impulse_noproj/multiple_body_complete.dat
================================================
