
================ Simulation setup ================
  Run label:         /work/e643/e643/shared/multi_ellip/studies/departing_sphericity_sweep/runs/spheroid_oblate/homogeneous/spheroid_oblate_homogeneous_eps0p0003_rho1_E0p5_sep8_run06_impulse_noproj/
  Started:           2026-06-24 02:23:13
  Input file:        /work/e643/e643/shared/multi_ellip/studies/departing_sphericity_sweep/runs/spheroid_oblate/homogeneous/spheroid_oblate_homogeneous_eps0p0003_rho1_E0p5_sep8_run06_impulse_noproj/input.txt
  Output file:       /work/e643/e643/shared/multi_ellip/studies/departing_sphericity_sweep/runs/spheroid_oblate/homogeneous/spheroid_oblate_homogeneous_eps0p0003_rho1_E0p5_sep8_run06_impulse_noproj/multiple_body_complete.dat
  Bodies:            2
  Fluid density:     1
  Mesh:              ndiv 2 -> 256 triangles / 516 nodes
  Simulated time:    0 -> 100  (dt = 0.05, ~2000 steps)
  Output cadence:    every 1 step(s)
  Output rows:       ~2001
  Progress cadence:  every 100 step(s)
  CPU cores:         256 available, 8 Rayon worker thread(s)
  Strong coupling:   disabled
  Impulse scheme:    enabled
  Hamiltonian step:  disabled
  Hamiltonian midpt: disabled
  Variational step:  disabled
  Energy projection: disabled
  Projection particular metric: Euclidean
  Fluid KE gradient: disabled  (eps = 0.001, scale = 1, linear = 1, angular = 1)
  Fluid KE discrete gradient: disabled
  Impulse pair metric correction: disabled  (mode = pair discrete-gradient, cutoff = all pairs, inner/outer = 0/0, eps = 0.001, linear scale = 1, angular scale = 0)
  Impulse metric correction: disabled  (internal load constraint = disabled)
  Impulse variational defect probe: disabled
  Impulse quadratic pressure: disabled  (scale = 1)
  Added-mass stab:   disabled
  Exact BEM geometry: disabled
  Exact singular BEM: disabled
  Legacy singular SLP diagnostic: disabled
  Phi-dot blend:     0 (off)

  Solver guidance:
    - Strong coupling: use for stiff close-coupled runs; slower but more implicit.
    - Impulse scheme: use when impulse/momentum conservation or KE drift is the focus. Recommended.
    - Added-mass stab: use for higher mesh counts (ndiv > 3) to preserve stability - deprecated.
================================================
Solver starting - good luck!

Initial state:
  Body  1
    density:          1.000000
    shape axes ratio: (1.000000, 1.000000, 0.999101)
    initial KE ratio: 0.500000
    position:         (-4.000000, 0.000000, 0.000000)
    velocity:         (-3.120649, -0.139030, -4.672983)
    angular velocity: (-2.226359, -2.227391, -5.436955)
    orientation:      (w=0.763271, i=0.343262, j=0.403210, k=-0.370149)
  Body  2
    density:          1.000000
    shape axes ratio: (1.000000, 1.000000, 0.999101)
    initial KE ratio: 0.500000
    position:         (4.000000, 0.000000, 0.000000)
    velocity:         (-3.119805, -0.138993, -4.671718)
    angular velocity: (5.476343, -1.920350, 2.408390)
    orientation:      (w=0.664203, i=-0.091310, j=0.736926, k=-0.086236)

Preparing first step: implicit scheme, no bootstrap passes required.
First step may take longer than later steps.

First step completed in 3.638 s.

Step   100/2000    5.0% | t 5.000 | ETA 2m 53s | step 0.08s | KE 265.9835 | drift -1.80% | fluid 72.4051 | solid 193.5784
  Impulse FP iterations last/mean/max 7/6.93/7
Step   200/2000   10.0% | t 10.000 | ETA 2m 43s | step 0.10s | KE 263.6869 | drift -2.65% | fluid 72.4073 | solid 191.2796
  Impulse FP iterations last/mean/max 7/6.89/7
Step   300/2000   15.0% | t 15.000 | ETA 2m 32s | step 0.09s | KE 263.9628 | drift -2.55% | fluid 72.4150 | solid 191.5477
  Impulse FP iterations last/mean/max 7/6.84/7
Step   400/2000   20.0% | t 20.000 | ETA 2m 23s | step 0.08s | KE 266.8076 | drift -1.50% | fluid 72.4043 | solid 194.4033
  Impulse FP iterations last/mean/max 6/6.79/7
Step   500/2000   25.0% | t 25.000 | ETA 2m 14s | step 0.08s | KE 272.2191 | drift +0.50% | fluid 72.4010 | solid 199.8181
  Impulse FP iterations last/mean/max 6/6.79/7
Step   600/2000   30.0% | t 30.000 | ETA 2m 2s | step 0.09s | KE 280.2033 | drift +3.45% | fluid 72.4054 | solid 207.7979
  Impulse FP iterations last/mean/max 7/6.79/7
Step   700/2000   35.0% | t 35.000 | ETA 1m 53s | step 0.09s | KE 290.7712 | drift +7.35% | fluid 72.4025 | solid 218.3686
  Impulse FP iterations last/mean/max 7/6.81/7
Step   800/2000   40.0% | t 40.000 | ETA 1m 44s | step 0.10s | KE 303.9348 | drift +12.21% | fluid 72.4101 | solid 231.5248
  Impulse FP iterations last/mean/max 7/6.83/7
Step   900/2000   45.0% | t 45.000 | ETA 1m 36s | step 0.09s | KE 319.7119 | drift +18.03% | fluid 72.3977 | solid 247.3143
  Impulse FP iterations last/mean/max 7/6.84/7
Step  1000/2000   50.0% | t 50.000 | ETA 1m 28s | step 0.09s | KE 338.1170 | drift +24.83% | fluid 72.4086 | solid 265.7084
  Impulse FP iterations last/mean/max 7/6.86/7
Step  1100/2000   55.0% | t 55.000 | ETA 1m 19s | step 0.10s | KE 359.1688 | drift +32.60% | fluid 72.4098 | solid 286.7590
  Impulse FP iterations last/mean/max 8/6.88/8
Step  1200/2000   60.0% | t 60.000 | ETA 1m 11s | step 0.09s | KE 382.8855 | drift +41.36% | fluid 72.4111 | solid 310.4744
  Impulse FP iterations last/mean/max 7/6.90/8
Step  1300/2000   65.0% | t 65.000 | ETA 1m 2s | step 0.09s | KE 409.2841 | drift +51.10% | fluid 72.4004 | solid 336.8836
  Impulse FP iterations last/mean/max 7/6.92/8
Step  1400/2000   70.0% | t 70.000 | ETA 53s | step 0.08s | KE 438.3781 | drift +61.84% | fluid 72.4000 | solid 365.9781
  Impulse FP iterations last/mean/max 7/6.95/8
Step  1500/2000   75.0% | t 75.000 | ETA 45s | step 0.10s | KE 470.1831 | drift +73.59% | fluid 72.3993 | solid 397.7838
  Impulse FP iterations last/mean/max 8/6.98/8
Step  1600/2000   80.0% | t 80.000 | ETA 36s | step 0.08s | KE 504.7114 | drift +86.33% | fluid 72.4074 | solid 432.3040
  Impulse FP iterations last/mean/max 7/7.02/8
Step  1700/2000   85.0% | t 85.000 | ETA 27s | step 0.08s | KE 541.9913 | drift +100.10% | fluid 72.3983 | solid 469.5930
  Impulse FP iterations last/mean/max 8/7.05/8
Step  1800/2000   90.0% | t 90.000 | ETA 17s | step 0.09s | KE 582.0151 | drift +114.87% | fluid 72.4142 | solid 509.6008
  Impulse FP iterations last/mean/max 8/7.08/8
Step  1900/2000   95.0% | t 95.000 | ETA 8s | step 0.08s | KE 624.8199 | drift +130.68% | fluid 72.4081 | solid 552.4119
  Impulse FP iterations last/mean/max 8/7.12/8
Solver finished successfully - good job!
Results saved successfully.

================== Run summary ==================
  Bodies:            2
  Triangles / nodes: 256 / 516
  Timesteps:         2000  (dt = 0.05)
  Simulated time:    0 -> 100
  First-step setup:  3.638 s
  Mean time/step:    0.0878 s  (excl. first step)
  Total wall time:   2m 59s
  Impulse FP iters last/mean/max: 7 / 7.143 / 8
  Approx impulse solves/step:     7.143
  Impulse start cache hits/direct: 1999 / 1
  Impulse global drift P/H:       7.641125e-9 / 6.890843e-2
  Impulse per-body max drift P/H: 1.260643e-8 / 4.077453e-3
  CPU cores:         256 available, 8 Rayon worker thread(s)
  Started:           2026-06-24 02:23:13
  Finished:          2026-06-24 02:26:13
  Output file:       /work/e643/e643/shared/multi_ellip/studies/departing_sphericity_sweep/runs/spheroid_oblate/homogeneous/spheroid_oblate_homogeneous_eps0p0003_rho1_E0p5_sep8_run06_impulse_noproj/multiple_body_complete.dat
================================================
