
================ Simulation setup ================
  Run label:         /work/e643/e643/shared/multi_ellip/studies/departing_sphericity_sweep/runs/spheroid_oblate/homogeneous/spheroid_oblate_homogeneous_eps0p01_rho1_E0p5_sep8_run06_impulse_noproj/
  Started:           2026-06-24 02:26:26
  Input file:        /work/e643/e643/shared/multi_ellip/studies/departing_sphericity_sweep/runs/spheroid_oblate/homogeneous/spheroid_oblate_homogeneous_eps0p01_rho1_E0p5_sep8_run06_impulse_noproj/input.txt
  Output file:       /work/e643/e643/shared/multi_ellip/studies/departing_sphericity_sweep/runs/spheroid_oblate/homogeneous/spheroid_oblate_homogeneous_eps0p01_rho1_E0p5_sep8_run06_impulse_noproj/multiple_body_complete.dat
  Bodies:            2
  Fluid density:     1
  Mesh:              ndiv 2 -> 256 triangles / 516 nodes
  Simulated time:    0 -> 100  (dt = 0.05, ~2000 steps)
  Output cadence:    every 1 step(s)
  Output rows:       ~2001
  Progress cadence:  every 100 step(s)
  CPU cores:         256 available, 8 Rayon worker thread(s)
  Strong coupling:   disabled
  Impulse scheme:    enabled
  Hamiltonian step:  disabled
  Hamiltonian midpt: disabled
  Variational step:  disabled
  Energy projection: disabled
  Projection particular metric: Euclidean
  Fluid KE gradient: disabled  (eps = 0.001, scale = 1, linear = 1, angular = 1)
  Fluid KE discrete gradient: disabled
  Impulse pair metric correction: disabled  (mode = pair discrete-gradient, cutoff = all pairs, inner/outer = 0/0, eps = 0.001, linear scale = 1, angular scale = 0)
  Impulse metric correction: disabled  (internal load constraint = disabled)
  Impulse variational defect probe: disabled
  Impulse quadratic pressure: disabled  (scale = 1)
  Added-mass stab:   disabled
  Exact BEM geometry: disabled
  Exact singular BEM: disabled
  Legacy singular SLP diagnostic: disabled
  Phi-dot blend:     0 (off)

  Solver guidance:
    - Strong coupling: use for stiff close-coupled runs; slower but more implicit.
    - Impulse scheme: use when impulse/momentum conservation or KE drift is the focus. Recommended.
    - Added-mass stab: use for higher mesh counts (ndiv > 3) to preserve stability - deprecated.
================================================
Solver starting - good luck!

Initial state:
  Body  1
    density:          1.000000
    shape axes ratio: (1.000000, 1.000000, 0.970590)
    initial KE ratio: 0.500000
    position:         (-4.000000, 0.000000, 0.000000)
    velocity:         (4.775470, 0.011155, 3.042808)
    angular velocity: (-2.285264, 1.128729, 5.742992)
    orientation:      (w=0.101544, i=0.990899, j=-0.076395, k=-0.044401)
  Body  2
    density:          1.000000
    shape axes ratio: (1.000000, 1.000000, 0.970590)
    initial KE ratio: 0.500000
    position:         (4.000000, 0.000000, 0.000000)
    velocity:         (4.785006, 0.011178, 3.048884)
    angular velocity: (0.781940, 0.681659, -6.196961)
    orientation:      (w=-0.102581, i=-0.574616, j=0.188675, k=0.789744)

Preparing first step: implicit scheme, no bootstrap passes required.
First step may take longer than later steps.

First step completed in 0.277 s.

Step   100/2000    5.0% | t 5.000 | ETA 3m 18s | step 0.10s | KE 278.9877 | drift +1.56% | fluid 73.5887 | solid 205.3991
  Impulse FP iterations last/mean/max 8/7.76/8
Step   200/2000   10.0% | t 10.000 | ETA 3m 7s | step 0.09s | KE 285.8239 | drift +4.05% | fluid 73.3370 | solid 212.4869
  Impulse FP iterations last/mean/max 7/7.75/8
Step   300/2000   15.0% | t 15.000 | ETA 2m 56s | step 0.09s | KE 294.1822 | drift +7.09% | fluid 73.2980 | solid 220.8843
  Impulse FP iterations last/mean/max 7/7.74/8
Step   400/2000   20.0% | t 20.000 | ETA 2m 46s | step 0.11s | KE 303.1475 | drift +10.36% | fluid 73.4263 | solid 229.7211
  Impulse FP iterations last/mean/max 8/7.74/8
Step   500/2000   25.0% | t 25.000 | ETA 2m 36s | step 0.09s | KE 312.0485 | drift +13.60% | fluid 73.2880 | solid 238.7605
  Impulse FP iterations last/mean/max 7/7.73/8
Step   600/2000   30.0% | t 30.000 | ETA 2m 25s | step 0.11s | KE 320.3111 | drift +16.61% | fluid 73.6914 | solid 246.6197
  Impulse FP iterations last/mean/max 8/7.74/8
Step   700/2000   35.0% | t 35.000 | ETA 2m 15s | step 0.11s | KE 327.8432 | drift +19.35% | fluid 73.5504 | solid 254.2927
  Impulse FP iterations last/mean/max 8/7.74/8
Step   800/2000   40.0% | t 40.000 | ETA 2m 4s | step 0.09s | KE 334.4130 | drift +21.74% | fluid 73.4529 | solid 260.9601
  Impulse FP iterations last/mean/max 7/7.74/8
Step   900/2000   45.0% | t 45.000 | ETA 1m 54s | step 0.09s | KE 340.0823 | drift +23.80% | fluid 73.3405 | solid 266.7418
  Impulse FP iterations last/mean/max 7/7.74/8
Step  1000/2000   50.0% | t 50.000 | ETA 1m 44s | step 0.10s | KE 344.9454 | drift +25.57% | fluid 73.4380 | solid 271.5074
  Impulse FP iterations last/mean/max 8/7.75/8
Step  1100/2000   55.0% | t 55.000 | ETA 1m 34s | step 0.10s | KE 349.3667 | drift +27.18% | fluid 73.3220 | solid 276.0447
  Impulse FP iterations last/mean/max 7/7.76/8
Step  1200/2000   60.0% | t 60.000 | ETA 1m 23s | step 0.09s | KE 353.5418 | drift +28.70% | fluid 73.3148 | solid 280.2270
  Impulse FP iterations last/mean/max 7/7.77/8
Step  1300/2000   65.0% | t 65.000 | ETA 1m 13s | step 0.10s | KE 357.6866 | drift +30.21% | fluid 73.8539 | solid 283.8327
  Impulse FP iterations last/mean/max 7/7.78/8
Step  1400/2000   70.0% | t 70.000 | ETA 1m 2s | step 0.10s | KE 361.8374 | drift +31.72% | fluid 73.4993 | solid 288.3381
  Impulse FP iterations last/mean/max 8/7.78/8
Step  1500/2000   75.0% | t 75.000 | ETA 52s | step 0.10s | KE 365.8917 | drift +33.20% | fluid 73.5238 | solid 292.3678
  Impulse FP iterations last/mean/max 8/7.78/8
Step  1600/2000   80.0% | t 80.000 | ETA 41s | step 0.10s | KE 369.6455 | drift +34.57% | fluid 73.8377 | solid 295.8078
  Impulse FP iterations last/mean/max 8/7.79/8
Step  1700/2000   85.0% | t 85.000 | ETA 31s | step 0.11s | KE 373.0278 | drift +35.80% | fluid 73.3948 | solid 299.6329
  Impulse FP iterations last/mean/max 8/7.78/8
Step  1800/2000   90.0% | t 90.000 | ETA 20s | step 0.09s | KE 375.8006 | drift +36.81% | fluid 73.8416 | solid 301.9589
  Impulse FP iterations last/mean/max 7/7.79/8
Step  1900/2000   95.0% | t 95.000 | ETA 10s | step 0.08s | KE 378.0703 | drift +37.63% | fluid 73.4905 | solid 304.5798
  Impulse FP iterations last/mean/max 8/7.78/8
Solver finished successfully - good job!
Results saved successfully.

================== Run summary ==================
  Bodies:            2
  Triangles / nodes: 256 / 516
  Timesteps:         2000  (dt = 0.05)
  Simulated time:    0 -> 100
  First-step setup:  0.277 s
  Mean time/step:    0.1024 s  (excl. first step)
  Total wall time:   3m 25s
  Impulse FP iters last/mean/max: 8 / 7.784 / 8
  Approx impulse solves/step:     7.784
  Impulse start cache hits/direct: 1999 / 1
  Impulse global drift P/H:       1.571667e-8 / 1.793094e-1
  Impulse per-body max drift P/H: 2.539942e-8 / 1.239738e-2
  CPU cores:         256 available, 8 Rayon worker thread(s)
  Started:           2026-06-24 02:26:26
  Finished:          2026-06-24 02:29:51
  Output file:       /work/e643/e643/shared/multi_ellip/studies/departing_sphericity_sweep/runs/spheroid_oblate/homogeneous/spheroid_oblate_homogeneous_eps0p01_rho1_E0p5_sep8_run06_impulse_noproj/multiple_body_complete.dat
================================================
