
================ Simulation setup ================
  Run label:         /work/e643/e643/shared/multi_ellip/studies/departing_sphericity_sweep/runs/spheroid_oblate/homogeneous/spheroid_oblate_homogeneous_eps0p03_rho1_E0p5_sep8_run08_impulse_noproj/
  Started:           2026-06-24 02:30:07
  Input file:        /work/e643/e643/shared/multi_ellip/studies/departing_sphericity_sweep/runs/spheroid_oblate/homogeneous/spheroid_oblate_homogeneous_eps0p03_rho1_E0p5_sep8_run08_impulse_noproj/input.txt
  Output file:       /work/e643/e643/shared/multi_ellip/studies/departing_sphericity_sweep/runs/spheroid_oblate/homogeneous/spheroid_oblate_homogeneous_eps0p03_rho1_E0p5_sep8_run08_impulse_noproj/multiple_body_complete.dat
  Bodies:            2
  Fluid density:     1
  Mesh:              ndiv 2 -> 256 triangles / 516 nodes
  Simulated time:    0 -> 100  (dt = 0.05, ~2000 steps)
  Output cadence:    every 1 step(s)
  Output rows:       ~2001
  Progress cadence:  every 100 step(s)
  CPU cores:         256 available, 8 Rayon worker thread(s)
  Strong coupling:   disabled
  Impulse scheme:    enabled
  Hamiltonian step:  disabled
  Hamiltonian midpt: disabled
  Variational step:  disabled
  Energy projection: disabled
  Projection particular metric: Euclidean
  Fluid KE gradient: disabled  (eps = 0.001, scale = 1, linear = 1, angular = 1)
  Fluid KE discrete gradient: disabled
  Impulse pair metric correction: disabled  (mode = pair discrete-gradient, cutoff = all pairs, inner/outer = 0/0, eps = 0.001, linear scale = 1, angular scale = 0)
  Impulse metric correction: disabled  (internal load constraint = disabled)
  Impulse variational defect probe: disabled
  Impulse quadratic pressure: disabled  (scale = 1)
  Added-mass stab:   disabled
  Exact BEM geometry: disabled
  Exact singular BEM: disabled
  Legacy singular SLP diagnostic: disabled
  Phi-dot blend:     0 (off)

  Solver guidance:
    - Strong coupling: use for stiff close-coupled runs; slower but more implicit.
    - Impulse scheme: use when impulse/momentum conservation or KE drift is the focus. Recommended.
    - Added-mass stab: use for higher mesh counts (ndiv > 3) to preserve stability - deprecated.
================================================
Solver starting - good luck!

Initial state:
  Body  1
    density:          1.000000
    shape axes ratio: (1.000000, 1.000000, 0.915142)
    initial KE ratio: 0.500000
    position:         (-4.000000, 0.000000, 0.000000)
    velocity:         (-2.197748, -3.950945, -3.389627)
    angular velocity: (-1.435753, 4.560469, -4.076659)
    orientation:      (w=-0.502022, i=-0.561744, j=0.594678, k=-0.280670)
  Body  2
    density:          1.000000
    shape axes ratio: (1.000000, 1.000000, 0.915142)
    initial KE ratio: 0.500000
    position:         (4.000000, 0.000000, 0.000000)
    velocity:         (-2.217238, -3.985983, -3.419688)
    angular velocity: (1.952868, 3.285938, 4.986716)
    orientation:      (w=0.117720, i=-0.101460, j=0.531641, k=0.832590)

Preparing first step: implicit scheme, no bootstrap passes required.
First step may take longer than later steps.

First step completed in 0.216 s.

Step   100/2000    5.0% | t 5.000 | ETA 3m 31s | step 0.10s | KE 289.6931 | drift +2.80% | fluid 79.6877 | solid 210.0054
  Impulse FP iterations last/mean/max 8/8.56/9
Step   200/2000   10.0% | t 10.000 | ETA 3m 24s | step 0.11s | KE 295.6206 | drift +4.91% | fluid 79.6572 | solid 215.9634
  Impulse FP iterations last/mean/max 8/8.56/9
Step   300/2000   15.0% | t 15.000 | ETA 3m 12s | step 0.11s | KE 301.8130 | drift +7.10% | fluid 80.2890 | solid 221.5240
  Impulse FP iterations last/mean/max 8/8.52/9
Step   400/2000   20.0% | t 20.000 | ETA 2m 59s | step 0.10s | KE 306.7428 | drift +8.85% | fluid 78.8000 | solid 227.9428
  Impulse FP iterations last/mean/max 8/8.43/9
Step   500/2000   25.0% | t 25.000 | ETA 2m 47s | step 0.11s | KE 311.4484 | drift +10.52% | fluid 79.4346 | solid 232.0138
  Impulse FP iterations last/mean/max 8/8.39/9
Step   600/2000   30.0% | t 30.000 | ETA 2m 35s | step 0.11s | KE 315.3413 | drift +11.90% | fluid 78.8847 | solid 236.4566
  Impulse FP iterations last/mean/max 8/8.33/9
Step   700/2000   35.0% | t 35.000 | ETA 2m 23s | step 0.10s | KE 319.0181 | drift +13.21% | fluid 78.9128 | solid 240.1053
  Impulse FP iterations last/mean/max 8/8.28/9
Step   800/2000   40.0% | t 40.000 | ETA 2m 12s | step 0.10s | KE 321.5075 | drift +14.09% | fluid 79.7186 | solid 241.7889
  Impulse FP iterations last/mean/max 8/8.25/9
Step   900/2000   45.0% | t 45.000 | ETA 2m 0s | step 0.10s | KE 324.4191 | drift +15.13% | fluid 79.7035 | solid 244.7155
  Impulse FP iterations last/mean/max 8/8.22/9
Step  1000/2000   50.0% | t 50.000 | ETA 1m 49s | step 0.10s | KE 326.5404 | drift +15.88% | fluid 79.9850 | solid 246.5554
  Impulse FP iterations last/mean/max 8/8.19/9
Step  1100/2000   55.0% | t 55.000 | ETA 1m 38s | step 0.10s | KE 328.5664 | drift +16.60% | fluid 80.0557 | solid 248.5107
  Impulse FP iterations last/mean/max 8/8.17/9
Step  1200/2000   60.0% | t 60.000 | ETA 1m 27s | step 0.10s | KE 330.6043 | drift +17.32% | fluid 78.4513 | solid 252.1530
  Impulse FP iterations last/mean/max 8/8.15/9
Step  1300/2000   65.0% | t 65.000 | ETA 1m 16s | step 0.11s | KE 331.7920 | drift +17.74% | fluid 80.4024 | solid 251.3896
  Impulse FP iterations last/mean/max 8/8.13/9
Step  1400/2000   70.0% | t 70.000 | ETA 1m 5s | step 0.10s | KE 333.2439 | drift +18.26% | fluid 79.5560 | solid 253.6879
  Impulse FP iterations last/mean/max 8/8.11/9
Step  1500/2000   75.0% | t 75.000 | ETA 54s | step 0.10s | KE 334.6882 | drift +18.77% | fluid 78.4975 | solid 256.1907
  Impulse FP iterations last/mean/max 8/8.09/9
Step  1600/2000   80.0% | t 80.000 | ETA 42s | step 0.09s | KE 335.6396 | drift +19.11% | fluid 78.7277 | solid 256.9119
  Impulse FP iterations last/mean/max 8/8.08/9
Step  1700/2000   85.0% | t 85.000 | ETA 31s | step 0.09s | KE 336.5358 | drift +19.43% | fluid 79.1604 | solid 257.3754
  Impulse FP iterations last/mean/max 8/8.06/9
Step  1800/2000   90.0% | t 90.000 | ETA 21s | step 0.09s | KE 337.1210 | drift +19.63% | fluid 79.0768 | solid 258.0442
  Impulse FP iterations last/mean/max 7/8.04/9
Step  1900/2000   95.0% | t 95.000 | ETA 10s | step 0.10s | KE 337.5828 | drift +19.80% | fluid 79.7601 | solid 257.8227
  Impulse FP iterations last/mean/max 8/8.03/9
Solver finished successfully - good job!
Results saved successfully.

================== Run summary ==================
  Bodies:            2
  Triangles / nodes: 256 / 516
  Timesteps:         2000  (dt = 0.05)
  Simulated time:    0 -> 100
  First-step setup:  0.216 s
  Mean time/step:    0.1052 s  (excl. first step)
  Total wall time:   3m 30s
  Impulse FP iters last/mean/max: 8 / 8.014 / 9
  Approx impulse solves/step:     8.014
  Impulse start cache hits/direct: 1999 / 1
  Impulse global drift P/H:       2.361352e-8 / 2.415058e-2
  Impulse per-body max drift P/H: 6.861848e-8 / 2.733193e-3
  CPU cores:         256 available, 8 Rayon worker thread(s)
  Started:           2026-06-24 02:30:07
  Finished:          2026-06-24 02:33:38
  Output file:       /work/e643/e643/shared/multi_ellip/studies/departing_sphericity_sweep/runs/spheroid_oblate/homogeneous/spheroid_oblate_homogeneous_eps0p03_rho1_E0p5_sep8_run08_impulse_noproj/multiple_body_complete.dat
================================================
