
================ Simulation setup ================
  Run label:         /work/e643/e643/shared/multi_ellip/studies/departing_sphericity_sweep/runs/spheroid_oblate/homogeneous/spheroid_oblate_homogeneous_eps0p1_rho1_E0p5_sep8_run09_impulse_noproj/
  Started:           2026-06-24 02:30:08
  Input file:        /work/e643/e643/shared/multi_ellip/studies/departing_sphericity_sweep/runs/spheroid_oblate/homogeneous/spheroid_oblate_homogeneous_eps0p1_rho1_E0p5_sep8_run09_impulse_noproj/input.txt
  Output file:       /work/e643/e643/shared/multi_ellip/studies/departing_sphericity_sweep/runs/spheroid_oblate/homogeneous/spheroid_oblate_homogeneous_eps0p1_rho1_E0p5_sep8_run09_impulse_noproj/multiple_body_complete.dat
  Bodies:            2
  Fluid density:     1
  Mesh:              ndiv 2 -> 256 triangles / 516 nodes
  Simulated time:    0 -> 100  (dt = 0.05, ~2000 steps)
  Output cadence:    every 1 step(s)
  Output rows:       ~2001
  Progress cadence:  every 100 step(s)
  CPU cores:         256 available, 8 Rayon worker thread(s)
  Strong coupling:   disabled
  Impulse scheme:    enabled
  Hamiltonian step:  disabled
  Hamiltonian midpt: disabled
  Variational step:  disabled
  Energy projection: disabled
  Projection particular metric: Euclidean
  Fluid KE gradient: disabled  (eps = 0.001, scale = 1, linear = 1, angular = 1)
  Fluid KE discrete gradient: disabled
  Impulse pair metric correction: disabled  (mode = pair discrete-gradient, cutoff = all pairs, inner/outer = 0/0, eps = 0.001, linear scale = 1, angular scale = 0)
  Impulse metric correction: disabled  (internal load constraint = disabled)
  Impulse variational defect probe: disabled
  Impulse quadratic pressure: disabled  (scale = 1)
  Added-mass stab:   disabled
  Exact BEM geometry: disabled
  Exact singular BEM: disabled
  Legacy singular SLP diagnostic: disabled
  Phi-dot blend:     0 (off)

  Solver guidance:
    - Strong coupling: use for stiff close-coupled runs; slower but more implicit.
    - Impulse scheme: use when impulse/momentum conservation or KE drift is the focus. Recommended.
    - Added-mass stab: use for higher mesh counts (ndiv > 3) to preserve stability - deprecated.
================================================
Solver starting - good luck!

Initial state:
  Body  1
    density:          1.000000
    shape axes ratio: (1.000000, 1.000000, 0.751315)
    initial KE ratio: 0.500000
    position:         (-4.000000, 0.000000, 0.000000)
    velocity:         (-2.023979, -2.587261, 4.732613)
    angular velocity: (-4.517213, -1.855527, -3.953508)
    orientation:      (w=-0.349348, i=-0.557127, j=0.278582, k=-0.699970)
  Body  2
    density:          1.000000
    shape axes ratio: (1.000000, 1.000000, 0.751315)
    initial KE ratio: 0.500000
    position:         (4.000000, 0.000000, 0.000000)
    velocity:         (-2.152802, -2.751936, 5.033837)
    angular velocity: (0.668682, -1.649620, -6.025781)
    orientation:      (w=-0.117851, i=-0.071238, j=-0.671250, k=0.728326)

Preparing first step: implicit scheme, no bootstrap passes required.
First step may take longer than later steps.

First step completed in 0.263 s.

Step   100/2000    5.0% | t 5.000 | ETA 3m 42s | step 0.12s | KE 293.5947 | drift +0.63% | fluid 80.0373 | solid 213.5574
  Impulse FP iterations last/mean/max 10/10.02/11
Step   200/2000   10.0% | t 10.000 | ETA 3m 35s | step 0.13s | KE 299.1292 | drift +2.53% | fluid 77.4410 | solid 221.6882
  Impulse FP iterations last/mean/max 10/10.03/11
Step   300/2000   15.0% | t 15.000 | ETA 3m 29s | step 0.14s | KE 305.8831 | drift +4.84% | fluid 79.3764 | solid 226.5068
  Impulse FP iterations last/mean/max 10/10.03/11
Step   400/2000   20.0% | t 20.000 | ETA 3m 21s | step 0.13s | KE 309.9017 | drift +6.22% | fluid 86.4212 | solid 223.4805
  Impulse FP iterations last/mean/max 10/10.04/11
Step   500/2000   25.0% | t 25.000 | ETA 3m 11s | step 0.13s | KE 313.1395 | drift +7.33% | fluid 79.0023 | solid 234.1372
  Impulse FP iterations last/mean/max 10/10.03/11
Step   600/2000   30.0% | t 30.000 | ETA 2m 59s | step 0.13s | KE 313.4698 | drift +7.44% | fluid 81.7530 | solid 231.7167
  Impulse FP iterations last/mean/max 10/10.04/11
Step   700/2000   35.0% | t 35.000 | ETA 2m 47s | step 0.13s | KE 314.3428 | drift +7.74% | fluid 80.9886 | solid 233.3542
  Impulse FP iterations last/mean/max 10/10.03/11
Step   800/2000   40.0% | t 40.000 | ETA 2m 35s | step 0.15s | KE 313.4168 | drift +7.42% | fluid 85.0561 | solid 228.3607
  Impulse FP iterations last/mean/max 11/10.04/11
Step   900/2000   45.0% | t 45.000 | ETA 2m 23s | step 0.13s | KE 314.1578 | drift +7.68% | fluid 81.0804 | solid 233.0774
  Impulse FP iterations last/mean/max 10/10.04/11
Step  1000/2000   50.0% | t 50.000 | ETA 2m 10s | step 0.13s | KE 313.7003 | drift +7.52% | fluid 80.9104 | solid 232.7899
  Impulse FP iterations last/mean/max 10/10.03/11
Step  1100/2000   55.0% | t 55.000 | ETA 1m 57s | step 0.13s | KE 313.7402 | drift +7.53% | fluid 80.9827 | solid 232.7575
  Impulse FP iterations last/mean/max 10/10.03/11
Step  1200/2000   60.0% | t 60.000 | ETA 1m 44s | step 0.13s | KE 313.1995 | drift +7.35% | fluid 85.9704 | solid 227.2291
  Impulse FP iterations last/mean/max 10/10.03/11
Step  1300/2000   65.0% | t 65.000 | ETA 1m 31s | step 0.13s | KE 313.2367 | drift +7.36% | fluid 82.5292 | solid 230.7075
  Impulse FP iterations last/mean/max 10/10.03/11
Step  1400/2000   70.0% | t 70.000 | ETA 1m 18s | step 0.13s | KE 314.0372 | drift +7.64% | fluid 78.1539 | solid 235.8833
  Impulse FP iterations last/mean/max 10/10.03/11
Step  1500/2000   75.0% | t 75.000 | ETA 1m 5s | step 0.15s | KE 312.9716 | drift +7.27% | fluid 84.9985 | solid 227.9731
  Impulse FP iterations last/mean/max 11/10.03/11
Step  1600/2000   80.0% | t 80.000 | ETA 52s | step 0.11s | KE 313.7751 | drift +7.55% | fluid 80.5680 | solid 233.2071
  Impulse FP iterations last/mean/max 10/10.03/11
Step  1700/2000   85.0% | t 85.000 | ETA 39s | step 0.12s | KE 313.0200 | drift +7.29% | fluid 85.1653 | solid 227.8547
  Impulse FP iterations last/mean/max 10/10.03/11
Step  1800/2000   90.0% | t 90.000 | ETA 26s | step 0.13s | KE 314.0644 | drift +7.64% | fluid 78.5741 | solid 235.4904
  Impulse FP iterations last/mean/max 10/10.03/11
Step  1900/2000   95.0% | t 95.000 | ETA 12s | step 0.11s | KE 313.4050 | drift +7.42% | fluid 82.3492 | solid 231.0558
  Impulse FP iterations last/mean/max 10/10.03/11
Solver finished successfully - good job!
Results saved successfully.

================== Run summary ==================
  Bodies:            2
  Triangles / nodes: 256 / 516
  Timesteps:         2000  (dt = 0.05)
  Simulated time:    0 -> 100
  First-step setup:  0.263 s
  Mean time/step:    0.1290 s  (excl. first step)
  Total wall time:   4m 18s
  Impulse FP iters last/mean/max: 10 / 10.031 / 11
  Approx impulse solves/step:     10.032
  Impulse start cache hits/direct: 1999 / 1
  Impulse global drift P/H:       1.560273e-8 / 1.735411e-2
  Impulse per-body max drift P/H: 3.060803e-8 / 3.410898e-3
  CPU cores:         256 available, 8 Rayon worker thread(s)
  Started:           2026-06-24 02:30:08
  Finished:          2026-06-24 02:34:26
  Output file:       /work/e643/e643/shared/multi_ellip/studies/departing_sphericity_sweep/runs/spheroid_oblate/homogeneous/spheroid_oblate_homogeneous_eps0p1_rho1_E0p5_sep8_run09_impulse_noproj/multiple_body_complete.dat
================================================
