
================ Simulation setup ================
  Run label:         /work/e643/e643/shared/multi_ellip/studies/departing_sphericity_sweep/runs/triaxial/heterogeneous_sphere/triaxial_heterogeneous_sphere_eps0p0001_rho1_E0p5_sep8_run02_impulse_noproj/
  Started:           2026-06-24 02:37:13
  Input file:        /work/e643/e643/shared/multi_ellip/studies/departing_sphericity_sweep/runs/triaxial/heterogeneous_sphere/triaxial_heterogeneous_sphere_eps0p0001_rho1_E0p5_sep8_run02_impulse_noproj/input.txt
  Output file:       /work/e643/e643/shared/multi_ellip/studies/departing_sphericity_sweep/runs/triaxial/heterogeneous_sphere/triaxial_heterogeneous_sphere_eps0p0001_rho1_E0p5_sep8_run02_impulse_noproj/multiple_body_complete.dat
  Bodies:            2
  Fluid density:     1
  Mesh:              ndiv 2 -> 256 triangles / 516 nodes
  Simulated time:    0 -> 100  (dt = 0.05, ~2000 steps)
  Output cadence:    every 1 step(s)
  Output rows:       ~2001
  Progress cadence:  every 100 step(s)
  CPU cores:         256 available, 8 Rayon worker thread(s)
  Strong coupling:   disabled
  Impulse scheme:    enabled
  Hamiltonian step:  disabled
  Hamiltonian midpt: disabled
  Variational step:  disabled
  Energy projection: disabled
  Projection particular metric: Euclidean
  Fluid KE gradient: disabled  (eps = 0.001, scale = 1, linear = 1, angular = 1)
  Fluid KE discrete gradient: disabled
  Impulse pair metric correction: disabled  (mode = pair discrete-gradient, cutoff = all pairs, inner/outer = 0/0, eps = 0.001, linear scale = 1, angular scale = 0)
  Impulse metric correction: disabled  (internal load constraint = disabled)
  Impulse variational defect probe: disabled
  Impulse quadratic pressure: disabled  (scale = 1)
  Added-mass stab:   disabled
  Exact BEM geometry: disabled
  Exact singular BEM: disabled
  Legacy singular SLP diagnostic: disabled
  Phi-dot blend:     0 (off)

  Solver guidance:
    - Strong coupling: use for stiff close-coupled runs; slower but more implicit.
    - Impulse scheme: use when impulse/momentum conservation or KE drift is the focus. Recommended.
    - Added-mass stab: use for higher mesh counts (ndiv > 3) to preserve stability - deprecated.
================================================
Solver starting - good luck!

Initial state:
  Body  1
    density:          1.000000
    shape axes ratio: (1.000000, 0.999900, 0.999800)
    initial KE ratio: 0.500000
    position:         (-4.000000, 0.000000, 0.000000)
    velocity:         (-5.247665, 1.631435, -1.176292)
    angular velocity: (-0.908774, 5.624186, -2.649732)
    orientation:      (w=-0.606161, i=0.561505, j=-0.562927, k=0.019837)
  Body  2
    density:          1.000000
    shape axes ratio: (1.000000, 1.000000, 1.000000)
    initial KE ratio: 0.500000
    position:         (4.000000, 0.000000, 0.000000)
    velocity:         (-5.247624, 1.631423, -1.176283)
    angular velocity: (-4.089321, 2.376480, -4.136208)
    orientation:      (w=-0.596356, i=0.202363, j=0.319310, k=-0.708131)

Preparing first step: implicit scheme, no bootstrap passes required.
First step may take longer than later steps.

First step completed in 0.247 s.

Step   100/2000    5.0% | t 5.000 | ETA 2m 34s | step 0.09s | KE 270.2894 | drift -0.07% | fluid 72.0382 | solid 198.2512
  Impulse FP iterations last/mean/max 6/6.00/6
Step   200/2000   10.0% | t 10.000 | ETA 2m 27s | step 0.09s | KE 271.5373 | drift +0.39% | fluid 72.0375 | solid 199.4998
  Impulse FP iterations last/mean/max 6/6.00/6
Step   300/2000   15.0% | t 15.000 | ETA 2m 20s | step 0.08s | KE 274.2230 | drift +1.38% | fluid 72.0375 | solid 202.1855
  Impulse FP iterations last/mean/max 6/6.00/6
Step   400/2000   20.0% | t 20.000 | ETA 2m 12s | step 0.08s | KE 278.3457 | drift +2.91% | fluid 72.0377 | solid 206.3080
  Impulse FP iterations last/mean/max 6/6.00/6
Step   500/2000   25.0% | t 25.000 | ETA 2m 4s | step 0.09s | KE 283.9050 | drift +4.96% | fluid 72.0374 | solid 211.8676
  Impulse FP iterations last/mean/max 6/6.00/6
Step   600/2000   30.0% | t 30.000 | ETA 1m 56s | step 0.09s | KE 290.8999 | drift +7.55% | fluid 72.0393 | solid 218.8606
  Impulse FP iterations last/mean/max 6/6.00/6
Step   700/2000   35.0% | t 35.000 | ETA 1m 48s | step 0.09s | KE 299.3300 | drift +10.67% | fluid 72.0381 | solid 227.2919
  Impulse FP iterations last/mean/max 6/6.00/6
Step   800/2000   40.0% | t 40.000 | ETA 1m 39s | step 0.08s | KE 309.1949 | drift +14.31% | fluid 72.0367 | solid 237.1582
  Impulse FP iterations last/mean/max 6/6.00/6
Step   900/2000   45.0% | t 45.000 | ETA 1m 31s | step 0.08s | KE 320.4929 | drift +18.49% | fluid 72.0383 | solid 248.4546
  Impulse FP iterations last/mean/max 6/6.00/6
Step  1000/2000   50.0% | t 50.000 | ETA 1m 23s | step 0.08s | KE 333.2246 | drift +23.20% | fluid 72.0364 | solid 261.1881
  Impulse FP iterations last/mean/max 6/6.00/7
Step  1100/2000   55.0% | t 55.000 | ETA 1m 15s | step 0.09s | KE 347.3880 | drift +28.43% | fluid 72.0367 | solid 275.3513
  Impulse FP iterations last/mean/max 6/6.01/7
Step  1200/2000   60.0% | t 60.000 | ETA 1m 6s | step 0.09s | KE 362.9832 | drift +34.20% | fluid 72.0378 | solid 290.9454
  Impulse FP iterations last/mean/max 6/6.01/7
Step  1300/2000   65.0% | t 65.000 | ETA 58s | step 0.09s | KE 380.0096 | drift +40.49% | fluid 72.0375 | solid 307.9721
  Impulse FP iterations last/mean/max 6/6.02/7
Step  1400/2000   70.0% | t 70.000 | ETA 50s | step 0.08s | KE 398.4653 | drift +47.32% | fluid 72.0396 | solid 326.4257
  Impulse FP iterations last/mean/max 6/6.03/7
Step  1500/2000   75.0% | t 75.000 | ETA 41s | step 0.08s | KE 418.3520 | drift +54.67% | fluid 72.0386 | solid 346.3134
  Impulse FP iterations last/mean/max 6/6.05/7
Step  1600/2000   80.0% | t 80.000 | ETA 33s | step 0.08s | KE 439.6670 | drift +62.55% | fluid 72.0389 | solid 367.6282
  Impulse FP iterations last/mean/max 6/6.07/7
Step  1700/2000   85.0% | t 85.000 | ETA 25s | step 0.07s | KE 462.4113 | drift +70.96% | fluid 72.0381 | solid 390.3732
  Impulse FP iterations last/mean/max 6/6.09/7
Step  1800/2000   90.0% | t 90.000 | ETA 16s | step 0.09s | KE 486.5817 | drift +79.90% | fluid 72.0402 | solid 414.5415
  Impulse FP iterations last/mean/max 7/6.11/7
Step  1900/2000   95.0% | t 95.000 | ETA 8s | step 0.07s | KE 512.1811 | drift +89.36% | fluid 72.0385 | solid 440.1426
  Impulse FP iterations last/mean/max 6/6.13/7
Solver finished successfully - good job!
Results saved successfully.

================== Run summary ==================
  Bodies:            2
  Triangles / nodes: 256 / 516
  Timesteps:         2000  (dt = 0.05)
  Simulated time:    0 -> 100
  First-step setup:  0.247 s
  Mean time/step:    0.0833 s  (excl. first step)
  Total wall time:   2m 46s
  Impulse FP iters last/mean/max: 7 / 6.149 / 7
  Approx impulse solves/step:     6.150
  Impulse start cache hits/direct: 1999 / 1
  Impulse global drift P/H:       5.906977e-9 / 3.677035e-2
  Impulse per-body max drift P/H: 1.017575e-8 / 8.305916e-3
  CPU cores:         256 available, 8 Rayon worker thread(s)
  Started:           2026-06-24 02:37:13
  Finished:          2026-06-24 02:40:00
  Output file:       /work/e643/e643/shared/multi_ellip/studies/departing_sphericity_sweep/runs/triaxial/heterogeneous_sphere/triaxial_heterogeneous_sphere_eps0p0001_rho1_E0p5_sep8_run02_impulse_noproj/multiple_body_complete.dat
================================================
