
================ Simulation setup ================
  Run label:         /work/e643/e643/shared/multi_ellip/studies/departing_sphericity_sweep/runs/triaxial/heterogeneous_sphere/triaxial_heterogeneous_sphere_eps0p0001_rho1_E0p5_sep8_run07_impulse_noproj/
  Started:           2026-06-24 02:37:14
  Input file:        /work/e643/e643/shared/multi_ellip/studies/departing_sphericity_sweep/runs/triaxial/heterogeneous_sphere/triaxial_heterogeneous_sphere_eps0p0001_rho1_E0p5_sep8_run07_impulse_noproj/input.txt
  Output file:       /work/e643/e643/shared/multi_ellip/studies/departing_sphericity_sweep/runs/triaxial/heterogeneous_sphere/triaxial_heterogeneous_sphere_eps0p0001_rho1_E0p5_sep8_run07_impulse_noproj/multiple_body_complete.dat
  Bodies:            2
  Fluid density:     1
  Mesh:              ndiv 2 -> 256 triangles / 516 nodes
  Simulated time:    0 -> 100  (dt = 0.05, ~2000 steps)
  Output cadence:    every 1 step(s)
  Output rows:       ~2001
  Progress cadence:  every 100 step(s)
  CPU cores:         256 available, 8 Rayon worker thread(s)
  Strong coupling:   disabled
  Impulse scheme:    enabled
  Hamiltonian step:  disabled
  Hamiltonian midpt: disabled
  Variational step:  disabled
  Energy projection: disabled
  Projection particular metric: Euclidean
  Fluid KE gradient: disabled  (eps = 0.001, scale = 1, linear = 1, angular = 1)
  Fluid KE discrete gradient: disabled
  Impulse pair metric correction: disabled  (mode = pair discrete-gradient, cutoff = all pairs, inner/outer = 0/0, eps = 0.001, linear scale = 1, angular scale = 0)
  Impulse metric correction: disabled  (internal load constraint = disabled)
  Impulse variational defect probe: disabled
  Impulse quadratic pressure: disabled  (scale = 1)
  Added-mass stab:   disabled
  Exact BEM geometry: disabled
  Exact singular BEM: disabled
  Legacy singular SLP diagnostic: disabled
  Phi-dot blend:     0 (off)

  Solver guidance:
    - Strong coupling: use for stiff close-coupled runs; slower but more implicit.
    - Impulse scheme: use when impulse/momentum conservation or KE drift is the focus. Recommended.
    - Added-mass stab: use for higher mesh counts (ndiv > 3) to preserve stability - deprecated.
================================================
Solver starting - good luck!

Initial state:
  Body  1
    density:          1.000000
    shape axes ratio: (1.000000, 0.999900, 0.999800)
    initial KE ratio: 0.500000
    position:         (-4.000000, 0.000000, 0.000000)
    velocity:         (-4.334969, -2.088607, -2.903554)
    angular velocity: (1.984878, -2.237762, -5.525495)
    orientation:      (w=-0.178932, i=-0.569867, j=-0.263127, k=-0.757628)
  Body  2
    density:          1.000000
    shape axes ratio: (1.000000, 1.000000, 1.000000)
    initial KE ratio: 0.500000
    position:         (4.000000, 0.000000, 0.000000)
    velocity:         (-4.334823, -2.088537, -2.903456)
    angular velocity: (-0.392987, -5.474434, -3.058522)
    orientation:      (w=0.733722, i=-0.173697, j=0.615401, k=0.229701)

Preparing first step: implicit scheme, no bootstrap passes required.
First step may take longer than later steps.

First step completed in 0.284 s.

Step   100/2000    5.0% | t 5.000 | ETA 2m 37s | step 0.09s | KE 270.1825 | drift -0.18% | fluid 72.2261 | solid 197.9564
  Impulse FP iterations last/mean/max 6/5.97/6
Step   200/2000   10.0% | t 10.000 | ETA 2m 30s | step 0.08s | KE 272.7667 | drift +0.78% | fluid 72.2274 | solid 200.5393
  Impulse FP iterations last/mean/max 6/5.98/6
Step   300/2000   15.0% | t 15.000 | ETA 2m 21s | step 0.08s | KE 278.4191 | drift +2.86% | fluid 72.2253 | solid 206.1938
  Impulse FP iterations last/mean/max 6/5.99/6
Step   400/2000   20.0% | t 20.000 | ETA 2m 13s | step 0.08s | KE 287.1359 | drift +6.08% | fluid 72.2271 | solid 214.9088
  Impulse FP iterations last/mean/max 6/5.99/6
Step   500/2000   25.0% | t 25.000 | ETA 2m 5s | step 0.08s | KE 298.9143 | drift +10.44% | fluid 72.2267 | solid 226.6876
  Impulse FP iterations last/mean/max 6/5.99/6
Step   600/2000   30.0% | t 30.000 | ETA 1m 57s | step 0.08s | KE 313.7507 | drift +15.92% | fluid 72.2258 | solid 241.5250
  Impulse FP iterations last/mean/max 6/5.99/6
Step   700/2000   35.0% | t 35.000 | ETA 1m 48s | step 0.08s | KE 331.6401 | drift +22.53% | fluid 72.2270 | solid 259.4131
  Impulse FP iterations last/mean/max 6/5.99/6
Step   800/2000   40.0% | t 40.000 | ETA 1m 40s | step 0.08s | KE 352.5786 | drift +30.26% | fluid 72.2276 | solid 280.3510
  Impulse FP iterations last/mean/max 6/6.00/6
Step   900/2000   45.0% | t 45.000 | ETA 1m 32s | step 0.08s | KE 376.5612 | drift +39.12% | fluid 72.2278 | solid 304.3334
  Impulse FP iterations last/mean/max 6/6.00/6
Step  1000/2000   50.0% | t 50.000 | ETA 1m 23s | step 0.09s | KE 403.5833 | drift +49.11% | fluid 72.2266 | solid 331.3567
  Impulse FP iterations last/mean/max 6/6.00/6
Step  1100/2000   55.0% | t 55.000 | ETA 1m 15s | step 0.08s | KE 433.6378 | drift +60.21% | fluid 72.2277 | solid 361.4101
  Impulse FP iterations last/mean/max 6/6.00/6
Step  1200/2000   60.0% | t 60.000 | ETA 1m 7s | step 0.09s | KE 466.7207 | drift +72.43% | fluid 72.2277 | solid 394.4930
  Impulse FP iterations last/mean/max 6/6.00/6
Step  1300/2000   65.0% | t 65.000 | ETA 58s | step 0.09s | KE 502.8258 | drift +85.77% | fluid 72.2271 | solid 430.5987
  Impulse FP iterations last/mean/max 6/6.00/7
Step  1400/2000   70.0% | t 70.000 | ETA 50s | step 0.10s | KE 541.9465 | drift +100.23% | fluid 72.2281 | solid 469.7184
  Impulse FP iterations last/mean/max 7/6.01/7
Step  1500/2000   75.0% | t 75.000 | ETA 42s | step 0.09s | KE 584.0778 | drift +115.79% | fluid 72.2281 | solid 511.8497
  Impulse FP iterations last/mean/max 6/6.03/7
Step  1600/2000   80.0% | t 80.000 | ETA 33s | step 0.08s | KE 629.2149 | drift +132.47% | fluid 72.2264 | solid 556.9885
  Impulse FP iterations last/mean/max 6/6.05/7
Step  1700/2000   85.0% | t 85.000 | ETA 25s | step 0.10s | KE 677.3490 | drift +150.25% | fluid 72.2265 | solid 605.1225
  Impulse FP iterations last/mean/max 7/6.08/7
Step  1800/2000   90.0% | t 90.000 | ETA 16s | step 0.10s | KE 728.4727 | drift +169.14% | fluid 72.2283 | solid 656.2445
  Impulse FP iterations last/mean/max 7/6.10/7
Step  1900/2000   95.0% | t 95.000 | ETA 8s | step 0.06s | KE 782.5853 | drift +189.13% | fluid 72.2274 | solid 710.3579
  Impulse FP iterations last/mean/max 6/6.12/7
Solver finished successfully - good job!
Results saved successfully.

================== Run summary ==================
  Bodies:            2
  Triangles / nodes: 256 / 516
  Timesteps:         2000  (dt = 0.05)
  Simulated time:    0 -> 100
  First-step setup:  0.284 s
  Mean time/step:    0.0829 s  (excl. first step)
  Total wall time:   2m 45s
  Impulse FP iters last/mean/max: 7 / 6.134 / 7
  Approx impulse solves/step:     6.135
  Impulse start cache hits/direct: 1999 / 1
  Impulse global drift P/H:       4.681601e-9 / 6.550818e-2
  Impulse per-body max drift P/H: 7.033167e-9 / 8.591615e-3
  CPU cores:         256 available, 8 Rayon worker thread(s)
  Started:           2026-06-24 02:37:14
  Finished:          2026-06-24 02:40:00
  Output file:       /work/e643/e643/shared/multi_ellip/studies/departing_sphericity_sweep/runs/triaxial/heterogeneous_sphere/triaxial_heterogeneous_sphere_eps0p0001_rho1_E0p5_sep8_run07_impulse_noproj/multiple_body_complete.dat
================================================
