
================ Simulation setup ================
  Run label:         /work/e643/e643/shared/multi_ellip/studies/departing_sphericity_sweep/runs/triaxial/heterogeneous_sphere/triaxial_heterogeneous_sphere_eps0_rho1_E0p5_sep8_run05_impulse_noproj/
  Started:           2026-06-24 02:37:13
  Input file:        /work/e643/e643/shared/multi_ellip/studies/departing_sphericity_sweep/runs/triaxial/heterogeneous_sphere/triaxial_heterogeneous_sphere_eps0_rho1_E0p5_sep8_run05_impulse_noproj/input.txt
  Output file:       /work/e643/e643/shared/multi_ellip/studies/departing_sphericity_sweep/runs/triaxial/heterogeneous_sphere/triaxial_heterogeneous_sphere_eps0_rho1_E0p5_sep8_run05_impulse_noproj/multiple_body_complete.dat
  Bodies:            2
  Fluid density:     1
  Mesh:              ndiv 2 -> 256 triangles / 516 nodes
  Simulated time:    0 -> 100  (dt = 0.05, ~2000 steps)
  Output cadence:    every 1 step(s)
  Output rows:       ~2001
  Progress cadence:  every 100 step(s)
  CPU cores:         256 available, 8 Rayon worker thread(s)
  Strong coupling:   disabled
  Impulse scheme:    enabled
  Hamiltonian step:  disabled
  Hamiltonian midpt: disabled
  Variational step:  disabled
  Energy projection: disabled
  Projection particular metric: Euclidean
  Fluid KE gradient: disabled  (eps = 0.001, scale = 1, linear = 1, angular = 1)
  Fluid KE discrete gradient: disabled
  Impulse pair metric correction: disabled  (mode = pair discrete-gradient, cutoff = all pairs, inner/outer = 0/0, eps = 0.001, linear scale = 1, angular scale = 0)
  Impulse metric correction: disabled  (internal load constraint = disabled)
  Impulse variational defect probe: disabled
  Impulse quadratic pressure: disabled  (scale = 1)
  Added-mass stab:   disabled
  Exact BEM geometry: disabled
  Exact singular BEM: disabled
  Legacy singular SLP diagnostic: disabled
  Phi-dot blend:     0 (off)

  Solver guidance:
    - Strong coupling: use for stiff close-coupled runs; slower but more implicit.
    - Impulse scheme: use when impulse/momentum conservation or KE drift is the focus. Recommended.
    - Added-mass stab: use for higher mesh counts (ndiv > 3) to preserve stability - deprecated.
================================================
Solver starting - good luck!

Initial state:
  Body  1
    density:          1.000000
    shape axes ratio: (1.000000, 1.000000, 1.000000)
    initial KE ratio: 0.500000
    position:         (-4.000000, 0.000000, 0.000000)
    velocity:         (-4.883088, -2.746608, 0.440828)
    angular velocity: (-5.792177, 1.241305, 2.094819)
    orientation:      (w=-0.359281, i=0.403232, j=-0.671800, k=-0.506958)
  Body  2
    density:          1.000000
    shape axes ratio: (1.000000, 1.000000, 1.000000)
    initial KE ratio: 0.500000
    position:         (4.000000, 0.000000, 0.000000)
    velocity:         (-4.883088, -2.746608, 0.440828)
    angular velocity: (-4.986757, -1.572529, -3.483939)
    orientation:      (w=0.223372, i=0.731954, j=0.204559, k=-0.610331)

Preparing first step: implicit scheme, no bootstrap passes required.
First step may take longer than later steps.

First step completed in 0.206 s.

Step   100/2000    5.0% | t 5.000 | ETA 2m 29s | step 0.08s | KE 273.7673 | drift +1.19% | fluid 72.1145 | solid 201.6527
  Impulse FP iterations last/mean/max 6/6.00/6
Step   200/2000   10.0% | t 10.000 | ETA 2m 25s | step 0.09s | KE 279.3627 | drift +3.26% | fluid 72.1145 | solid 207.2481
  Impulse FP iterations last/mean/max 6/6.00/6
Step   300/2000   15.0% | t 15.000 | ETA 2m 19s | step 0.08s | KE 287.3407 | drift +6.20% | fluid 72.1145 | solid 215.2262
  Impulse FP iterations last/mean/max 6/6.00/6
Step   400/2000   20.0% | t 20.000 | ETA 2m 11s | step 0.07s | KE 297.7014 | drift +10.03% | fluid 72.1145 | solid 225.5869
  Impulse FP iterations last/mean/max 6/6.00/6
Step   500/2000   25.0% | t 25.000 | ETA 2m 3s | step 0.09s | KE 310.4450 | drift +14.74% | fluid 72.1146 | solid 238.3305
  Impulse FP iterations last/mean/max 6/6.00/6
Step   600/2000   30.0% | t 30.000 | ETA 1m 55s | step 0.09s | KE 325.5717 | drift +20.33% | fluid 72.1146 | solid 253.4572
  Impulse FP iterations last/mean/max 6/6.00/6
Step   700/2000   35.0% | t 35.000 | ETA 1m 47s | step 0.08s | KE 343.0813 | drift +26.81% | fluid 72.1145 | solid 270.9668
  Impulse FP iterations last/mean/max 6/5.99/6
Step   800/2000   40.0% | t 40.000 | ETA 1m 39s | step 0.07s | KE 362.9740 | drift +34.16% | fluid 72.1146 | solid 290.8594
  Impulse FP iterations last/mean/max 5/5.97/6
Step   900/2000   45.0% | t 45.000 | ETA 1m 30s | step 0.07s | KE 385.2493 | drift +42.39% | fluid 72.1146 | solid 313.1347
  Impulse FP iterations last/mean/max 5/5.95/6
Step  1000/2000   50.0% | t 50.000 | ETA 1m 21s | step 0.09s | KE 409.9073 | drift +51.51% | fluid 72.1146 | solid 337.7927
  Impulse FP iterations last/mean/max 6/5.92/6
Step  1100/2000   55.0% | t 55.000 | ETA 1m 12s | step 0.07s | KE 436.9477 | drift +61.50% | fluid 72.1146 | solid 364.8331
  Impulse FP iterations last/mean/max 6/5.89/6
Step  1200/2000   60.0% | t 60.000 | ETA 1m 3s | step 0.06s | KE 466.3702 | drift +72.38% | fluid 72.1147 | solid 394.2555
  Impulse FP iterations last/mean/max 5/5.87/6
Step  1300/2000   65.0% | t 65.000 | ETA 55s | step 0.07s | KE 498.1749 | drift +84.13% | fluid 72.1147 | solid 426.0602
  Impulse FP iterations last/mean/max 6/5.85/6
Step  1400/2000   70.0% | t 70.000 | ETA 47s | step 0.08s | KE 532.3614 | drift +96.77% | fluid 72.1147 | solid 460.2467
  Impulse FP iterations last/mean/max 6/5.82/6
Step  1500/2000   75.0% | t 75.000 | ETA 39s | step 0.07s | KE 568.9296 | drift +110.28% | fluid 72.1147 | solid 496.8148
  Impulse FP iterations last/mean/max 6/5.80/6
Step  1600/2000   80.0% | t 80.000 | ETA 31s | step 0.08s | KE 607.8792 | drift +124.68% | fluid 72.1147 | solid 535.7645
  Impulse FP iterations last/mean/max 6/5.78/6
Step  1700/2000   85.0% | t 85.000 | ETA 23s | step 0.08s | KE 649.2104 | drift +139.96% | fluid 72.1147 | solid 577.0957
  Impulse FP iterations last/mean/max 6/5.76/6
Step  1800/2000   90.0% | t 90.000 | ETA 15s | step 0.06s | KE 692.9226 | drift +156.11% | fluid 72.1148 | solid 620.8079
  Impulse FP iterations last/mean/max 5/5.74/6
Step  1900/2000   95.0% | t 95.000 | ETA 7s | step 0.07s | KE 739.0157 | drift +173.15% | fluid 72.1149 | solid 666.9008
  Impulse FP iterations last/mean/max 5/5.72/6
Solver finished successfully - good job!
Results saved successfully.

================== Run summary ==================
  Bodies:            2
  Triangles / nodes: 256 / 516
  Timesteps:         2000  (dt = 0.05)
  Simulated time:    0 -> 100
  First-step setup:  0.206 s
  Mean time/step:    0.0770 s  (excl. first step)
  Total wall time:   2m 34s
  Impulse FP iters last/mean/max: 6 / 5.711 / 6
  Approx impulse solves/step:     5.712
  Impulse start cache hits/direct: 1999 / 1
  Impulse global drift P/H:       2.720929e-9 / 5.615545e-2
  Impulse per-body max drift P/H: 3.171343e-9 / 7.675313e-3
  CPU cores:         256 available, 8 Rayon worker thread(s)
  Started:           2026-06-24 02:37:13
  Finished:          2026-06-24 02:39:47
  Output file:       /work/e643/e643/shared/multi_ellip/studies/departing_sphericity_sweep/runs/triaxial/heterogeneous_sphere/triaxial_heterogeneous_sphere_eps0_rho1_E0p5_sep8_run05_impulse_noproj/multiple_body_complete.dat
================================================
