
================ Simulation setup ================
  Run label:         /work/e643/e643/shared/multi_ellip/studies/departing_sphericity_sweep/runs/spheroid_prolate/homogeneous/spheroid_prolate_homogeneous_eps0p1_rho1_E0p5_sep8_run09_impulse_noproj/
  Started:           2026-06-24 02:30:37
  Input file:        /work/e643/e643/shared/multi_ellip/studies/departing_sphericity_sweep/runs/spheroid_prolate/homogeneous/spheroid_prolate_homogeneous_eps0p1_rho1_E0p5_sep8_run09_impulse_noproj/input.txt
  Output file:       /work/e643/e643/shared/multi_ellip/studies/departing_sphericity_sweep/runs/spheroid_prolate/homogeneous/spheroid_prolate_homogeneous_eps0p1_rho1_E0p5_sep8_run09_impulse_noproj/multiple_body_complete.dat
  Bodies:            2
  Fluid density:     1
  Mesh:              ndiv 2 -> 256 triangles / 516 nodes
  Simulated time:    0 -> 100  (dt = 0.05, ~2000 steps)
  Output cadence:    every 1 step(s)
  Output rows:       ~2001
  Progress cadence:  every 100 step(s)
  CPU cores:         256 available, 8 Rayon worker thread(s)
  Strong coupling:   disabled
  Impulse scheme:    enabled
  Hamiltonian step:  disabled
  Hamiltonian midpt: disabled
  Variational step:  disabled
  Energy projection: disabled
  Projection particular metric: Euclidean
  Fluid KE gradient: disabled  (eps = 0.001, scale = 1, linear = 1, angular = 1)
  Fluid KE discrete gradient: disabled
  Impulse pair metric correction: disabled  (mode = pair discrete-gradient, cutoff = all pairs, inner/outer = 0/0, eps = 0.001, linear scale = 1, angular scale = 0)
  Impulse metric correction: disabled  (internal load constraint = disabled)
  Impulse variational defect probe: disabled
  Impulse quadratic pressure: disabled  (scale = 1)
  Added-mass stab:   disabled
  Exact BEM geometry: disabled
  Exact singular BEM: disabled
  Legacy singular SLP diagnostic: disabled
  Phi-dot blend:     0 (off)

  Solver guidance:
    - Strong coupling: use for stiff close-coupled runs; slower but more implicit.
    - Impulse scheme: use when impulse/momentum conservation or KE drift is the focus. Recommended.
    - Added-mass stab: use for higher mesh counts (ndiv > 3) to preserve stability - deprecated.
================================================
Solver starting - good luck!

Initial state:
  Body  1
    density:          1.000000
    shape axes ratio: (1.000000, 0.751315, 0.751315)
    initial KE ratio: 0.500000
    position:         (-4.000000, 0.000000, 0.000000)
    velocity:         (1.092631, -0.497058, 5.209983)
    angular velocity: (5.453619, 3.101703, -0.340442)
    orientation:      (w=-0.858709, i=0.403068, j=0.166100, k=-0.269381)
  Body  2
    density:          1.000000
    shape axes ratio: (1.000000, 0.751315, 0.751315)
    initial KE ratio: 0.500000
    position:         (4.000000, 0.000000, 0.000000)
    velocity:         (1.121767, -0.510312, 5.348908)
    angular velocity: (-4.866778, 1.941346, 3.467573)
    orientation:      (w=0.745790, i=-0.603337, j=0.153495, k=0.237110)

Preparing first step: implicit scheme, no bootstrap passes required.
First step may take longer than later steps.

First step completed in 0.258 s.

Step   100/2000    5.0% | t 5.000 | ETA 4m 5s | step 0.14s | KE 258.0416 | drift +0.22% | fluid 77.7245 | solid 180.3170
  Impulse FP iterations last/mean/max 10/9.17/10
Step   200/2000   10.0% | t 10.000 | ETA 3m 53s | step 0.11s | KE 260.6049 | drift +1.22% | fluid 77.7154 | solid 182.8895
  Impulse FP iterations last/mean/max 8/9.13/10
Step   300/2000   15.0% | t 15.000 | ETA 3m 40s | step 0.15s | KE 261.1859 | drift +1.44% | fluid 76.4089 | solid 184.7771
  Impulse FP iterations last/mean/max 10/9.10/10
Step   400/2000   20.0% | t 20.000 | ETA 3m 26s | step 0.13s | KE 262.2611 | drift +1.86% | fluid 77.5227 | solid 184.7384
  Impulse FP iterations last/mean/max 9/9.04/10
Step   500/2000   25.0% | t 25.000 | ETA 3m 12s | step 0.13s | KE 262.6826 | drift +2.03% | fluid 75.1609 | solid 187.5217
  Impulse FP iterations last/mean/max 9/8.99/10
Step   600/2000   30.0% | t 30.000 | ETA 2m 59s | step 0.12s | KE 263.2232 | drift +2.24% | fluid 77.1599 | solid 186.0633
  Impulse FP iterations last/mean/max 9/8.96/10
Step   700/2000   35.0% | t 35.000 | ETA 2m 45s | step 0.13s | KE 263.4920 | drift +2.34% | fluid 74.7964 | solid 188.6956
  Impulse FP iterations last/mean/max 9/8.93/10
Step   800/2000   40.0% | t 40.000 | ETA 2m 32s | step 0.12s | KE 263.7870 | drift +2.45% | fluid 77.1614 | solid 186.6256
  Impulse FP iterations last/mean/max 8/8.91/10
Step   900/2000   45.0% | t 45.000 | ETA 2m 19s | step 0.12s | KE 263.9798 | drift +2.53% | fluid 75.2265 | solid 188.7533
  Impulse FP iterations last/mean/max 9/8.89/10
Step  1000/2000   50.0% | t 50.000 | ETA 2m 6s | step 0.11s | KE 264.0952 | drift +2.57% | fluid 77.6095 | solid 186.4858
  Impulse FP iterations last/mean/max 8/8.88/10
Step  1100/2000   55.0% | t 55.000 | ETA 1m 54s | step 0.12s | KE 264.2237 | drift +2.62% | fluid 76.8992 | solid 187.3245
  Impulse FP iterations last/mean/max 9/8.87/10
Step  1200/2000   60.0% | t 60.000 | ETA 1m 41s | step 0.11s | KE 264.3014 | drift +2.65% | fluid 77.5822 | solid 186.7192
  Impulse FP iterations last/mean/max 8/8.87/10
Step  1300/2000   65.0% | t 65.000 | ETA 1m 28s | step 0.11s | KE 264.4482 | drift +2.71% | fluid 77.6426 | solid 186.8056
  Impulse FP iterations last/mean/max 8/8.86/10
Step  1400/2000   70.0% | t 70.000 | ETA 1m 15s | step 0.13s | KE 264.5477 | drift +2.75% | fluid 76.0798 | solid 188.4680
  Impulse FP iterations last/mean/max 9/8.85/10
Step  1500/2000   75.0% | t 75.000 | ETA 1m 3s | step 0.13s | KE 264.6497 | drift +2.79% | fluid 77.6066 | solid 187.0430
  Impulse FP iterations last/mean/max 9/8.85/10
Step  1600/2000   80.0% | t 80.000 | ETA 50s | step 0.13s | KE 264.7134 | drift +2.81% | fluid 75.0059 | solid 189.7076
  Impulse FP iterations last/mean/max 9/8.84/10
Step  1700/2000   85.0% | t 85.000 | ETA 37s | step 0.13s | KE 264.8425 | drift +2.86% | fluid 76.8487 | solid 187.9938
  Impulse FP iterations last/mean/max 9/8.84/10
Step  1800/2000   90.0% | t 90.000 | ETA 25s | step 0.11s | KE 264.8290 | drift +2.86% | fluid 74.6748 | solid 190.1542
  Impulse FP iterations last/mean/max 9/8.83/10
Step  1900/2000   95.0% | t 95.000 | ETA 12s | step 0.11s | KE 264.8656 | drift +2.87% | fluid 77.4092 | solid 187.4564
  Impulse FP iterations last/mean/max 8/8.83/10
Solver finished successfully - good job!
Results saved successfully.

================== Run summary ==================
  Bodies:            2
  Triangles / nodes: 256 / 516
  Timesteps:         2000  (dt = 0.05)
  Simulated time:    0 -> 100
  First-step setup:  0.258 s
  Mean time/step:    0.1247 s  (excl. first step)
  Total wall time:   4m 9s
  Impulse FP iters last/mean/max: 9 / 8.829 / 10
  Approx impulse solves/step:     8.830
  Impulse start cache hits/direct: 1999 / 1
  Impulse global drift P/H:       2.468679e-8 / 2.459116e-2
  Impulse per-body max drift P/H: 4.090673e-8 / 1.993877e-3
  CPU cores:         256 available, 8 Rayon worker thread(s)
  Started:           2026-06-24 02:30:37
  Finished:          2026-06-24 02:34:47
  Output file:       /work/e643/e643/shared/multi_ellip/studies/departing_sphericity_sweep/runs/spheroid_prolate/homogeneous/spheroid_prolate_homogeneous_eps0p1_rho1_E0p5_sep8_run09_impulse_noproj/multiple_body_complete.dat
================================================
