
================ Simulation setup ================
  Run label:         /work/e643/e643/shared/multi_ellip/studies/multibody_convergence_sweep/runs/periodic_grid_spheroid_1_0p7_0p7_rho4_E1_sep3_nd2_dt0p05/
  Started:           2026-06-22 19:37:46
  Input file:        /work/e643/e643/shared/multi_ellip/studies/multibody_convergence_sweep/runs/periodic_grid_spheroid_1_0p7_0p7_rho4_E1_sep3_nd2_dt0p05/input.txt
  Output file:       /work/e643/e643/shared/multi_ellip/studies/multibody_convergence_sweep/runs/periodic_grid_spheroid_1_0p7_0p7_rho4_E1_sep3_nd2_dt0p05/multiple_body_complete.dat
  Bodies:            2
  Fluid density:     1
  Mesh:              ndiv 2 -> 256 triangles / 516 nodes
  Simulated time:    0 -> 10  (dt = 0.05, ~200 steps)
  Output cadence:    every 1 step(s)
  Output rows:       ~201
  Progress cadence:  every 20 step(s)
  CPU cores:         256 available, 16 Rayon worker thread(s)
  Strong coupling:   disabled
  Impulse scheme:    enabled
  Hamiltonian step:  disabled
  Hamiltonian midpt: disabled
  Variational step:  disabled
  Energy projection: disabled
  Projection particular metric: Euclidean
  Fluid KE gradient: disabled  (eps = 0.001, scale = 1, linear = 1, angular = 1)
  Fluid KE discrete gradient: disabled
  Impulse pair metric correction: disabled  (mode = pair discrete-gradient, cutoff = all pairs, inner/outer = 0/0, eps = 0.001, linear scale = 1, angular scale = 0)
  Impulse metric correction: disabled  (internal load constraint = disabled)
  Impulse variational defect probe: disabled
  Impulse quadratic pressure: disabled  (scale = 1)
  Added-mass stab:   disabled
  Exact BEM geometry: disabled
  Exact singular BEM: disabled
  Legacy singular SLP diagnostic: disabled
  Phi-dot blend:     0 (off)

  Solver guidance:
    - Strong coupling: use for stiff close-coupled runs; slower but more implicit.
    - Impulse scheme: use when impulse/momentum conservation or KE drift is the focus. Recommended.
    - Added-mass stab: use for higher mesh counts (ndiv > 3) to preserve stability - deprecated.
================================================
Solver starting - good luck!

Initial state:
  Body  1
    density:          4.000000
    shape axes ratio: (1.000000, 0.700000, 0.700000)
    initial KE ratio: 1.000000
    position:         (-1.500000, 0.000000, 0.000000)
    velocity:         (-1.739905, 1.390483, 3.678114)
    angular velocity: (1.635701, 6.039885, -0.568058)
    orientation:      (w=0.447214, i=0.894427, j=0.000000, k=0.000000)
  Body  2
    density:          4.000000
    shape axes ratio: (1.000000, 0.700000, 0.700000)
    initial KE ratio: 1.000000
    position:         (1.500000, 0.000000, 0.000000)
    velocity:         (-1.708544, 1.365420, 3.611817)
    angular velocity: (-2.588509, -1.093576, 5.619798)
    orientation:      (w=0.707107, i=0.000000, j=0.707107, k=0.000000)

Preparing first step: implicit scheme, no bootstrap passes required.
First step may take longer than later steps.

First step completed in 0.188 s.

Step    20/200    10.0% | t 1.000 | ETA 16s | step 0.08s | KE 613.1073 | drift -0.96% | fluid 52.0979 | solid 561.0094
  Impulse FP iterations last/mean/max 9/8.35/9
Step    40/200    20.0% | t 2.000 | ETA 13s | step 0.08s | KE 609.8287 | drift -1.49% | fluid 47.1210 | solid 562.7077
  Impulse FP iterations last/mean/max 9/8.32/9
Step    60/200    30.0% | t 3.000 | ETA 11s | step 0.07s | KE 613.5334 | drift -0.89% | fluid 33.8633 | solid 579.6701
  Impulse FP iterations last/mean/max 8/8.28/9
Step    80/200    40.0% | t 4.000 | ETA 9s | step 0.07s | KE 622.3642 | drift +0.54% | fluid 41.1708 | solid 581.1935
  Impulse FP iterations last/mean/max 8/8.32/9
Step   100/200    50.0% | t 5.000 | ETA 7s | step 0.07s | KE 635.2597 | drift +2.62% | fluid 32.9796 | solid 602.2801
  Impulse FP iterations last/mean/max 8/8.32/9
Step   120/200    60.0% | t 6.000 | ETA 6s | step 0.07s | KE 648.0544 | drift +4.69% | fluid 41.2257 | solid 606.8287
  Impulse FP iterations last/mean/max 9/8.32/9
Step   140/200    70.0% | t 7.000 | ETA 4s | step 0.07s | KE 660.8433 | drift +6.76% | fluid 33.8797 | solid 626.9636
  Impulse FP iterations last/mean/max 8/8.30/9
Step   160/200    80.0% | t 8.000 | ETA 2s | step 0.07s | KE 673.6136 | drift +8.82% | fluid 36.4204 | solid 637.1932
  Impulse FP iterations last/mean/max 8/8.29/9
Step   180/200    90.0% | t 9.000 | ETA 1s | step 0.07s | KE 682.8760 | drift +10.31% | fluid 42.1713 | solid 640.7048
  Impulse FP iterations last/mean/max 9/8.27/9
Solver finished successfully - good job!
Results saved successfully.

================== Run summary ==================
  Bodies:            2
  Triangles / nodes: 256 / 516
  Timesteps:         200  (dt = 0.05)
  Simulated time:    0 -> 10
  First-step setup:  0.188 s
  Mean time/step:    0.0725 s  (excl. first step)
  Total wall time:   14.62s
  Impulse FP iters last/mean/max: 9 / 8.250 / 9
  Approx impulse solves/step:     8.255
  Impulse start cache hits/direct: 199 / 1
  Impulse global drift P/H:       1.000623e-9 / 2.434815e-2
  Impulse per-body max drift P/H: 1.752577e-9 / 9.243522e-3
  CPU cores:         256 available, 16 Rayon worker thread(s)
  Started:           2026-06-22 19:37:46
  Finished:          2026-06-22 19:38:01
  Output file:       /work/e643/e643/shared/multi_ellip/studies/multibody_convergence_sweep/runs/periodic_grid_spheroid_1_0p7_0p7_rho4_E1_sep3_nd2_dt0p05/multiple_body_complete.dat
================================================
