
================ Simulation setup ================
  Run label:         /work/e643/e643/shared/multi_ellip/studies/two_body_paper_sweeps/runs/ellipsoid_1_0p8_0p6/ellipsoid_1_0p8_0p6_rho0p3_E30_sep5_run03_impulse_noproj/
  Started:           2026-06-24 01:58:15
  Input file:        /work/e643/e643/shared/multi_ellip/studies/two_body_paper_sweeps/runs/ellipsoid_1_0p8_0p6/ellipsoid_1_0p8_0p6_rho0p3_E30_sep5_run03_impulse_noproj/input.txt
  Output file:       /work/e643/e643/shared/multi_ellip/studies/two_body_paper_sweeps/runs/ellipsoid_1_0p8_0p6/ellipsoid_1_0p8_0p6_rho0p3_E30_sep5_run03_impulse_noproj/multiple_body_complete.dat
  Bodies:            2
  Fluid density:     1
  Mesh:              ndiv 2 -> 256 triangles / 516 nodes
  Simulated time:    0 -> 100  (dt = 0.05, ~2000 steps)
  Output cadence:    every 1 step(s)
  Output rows:       ~2001
  Progress cadence:  every 100 step(s)
  CPU cores:         256 available, 8 Rayon worker thread(s)
  Strong coupling:   disabled
  Impulse scheme:    enabled
  Hamiltonian step:  disabled
  Hamiltonian midpt: disabled
  Variational step:  disabled
  Energy projection: disabled
  Projection particular metric: Euclidean
  Fluid KE gradient: disabled  (eps = 0.001, scale = 1, linear = 1, angular = 1)
  Fluid KE discrete gradient: disabled
  Impulse pair metric correction: disabled  (mode = pair discrete-gradient, cutoff = all pairs, inner/outer = 0/0, eps = 0.001, linear scale = 1, angular scale = 0)
  Impulse metric correction: disabled  (internal load constraint = disabled)
  Impulse variational defect probe: disabled
  Impulse quadratic pressure: disabled  (scale = 1)
  Added-mass stab:   disabled
  Exact BEM geometry: disabled
  Exact singular BEM: disabled
  Legacy singular SLP diagnostic: disabled
  Phi-dot blend:     0 (off)

  Solver guidance:
    - Strong coupling: use for stiff close-coupled runs; slower but more implicit.
    - Impulse scheme: use when impulse/momentum conservation or KE drift is the focus. Recommended.
    - Added-mass stab: use for higher mesh counts (ndiv > 3) to preserve stability - deprecated.
================================================
Solver starting - good luck!

Initial state:
  Body  1
    density:          0.300000
    shape axes ratio: (1.000000, 0.800000, 0.600000)
    initial KE ratio: 30.000000
    position:         (-2.500000, 0.000000, 0.000000)
    velocity:         (-0.068760, -0.226679, -0.709084)
    angular velocity: (3.074572, -5.105580, 1.989591)
    orientation:      (w=-0.710534, i=0.123761, j=-0.079139, k=0.688158)
  Body  2
    density:          0.300000
    shape axes ratio: (1.000000, 0.800000, 0.600000)
    initial KE ratio: 30.000000
    position:         (2.500000, 0.000000, 0.000000)
    velocity:         (-0.073335, -0.241762, -0.756265)
    angular velocity: (-3.003939, -1.344872, 5.352204)
    orientation:      (w=0.001500, i=0.452960, j=-0.774071, k=-0.442312)

Preparing first step: implicit scheme, no bootstrap passes required.
First step may take longer than later steps.

First step completed in 0.431 s.

Step   100/2000    5.0% | t 5.000 | ETA 6m 53s | step 0.21s | KE 30.5804 | drift -1.15% | fluid 9.6860 | solid 20.8944
  Impulse FP iterations last/mean/max 14/14.92/16
Step   200/2000   10.0% | t 10.000 | ETA 6m 27s | step 0.22s | KE 30.2488 | drift -2.22% | fluid 8.6702 | solid 21.5786
  Impulse FP iterations last/mean/max 15/14.82/16
Step   300/2000   15.0% | t 15.000 | ETA 6m 5s | step 0.22s | KE 30.0184 | drift -2.97% | fluid 9.4039 | solid 20.6144
  Impulse FP iterations last/mean/max 15/14.79/16
Step   400/2000   20.0% | t 20.000 | ETA 5m 42s | step 0.21s | KE 29.8833 | drift -3.40% | fluid 9.7149 | solid 20.1684
  Impulse FP iterations last/mean/max 14/14.72/16
Step   500/2000   25.0% | t 25.000 | ETA 5m 18s | step 0.21s | KE 29.8043 | drift -3.66% | fluid 9.4326 | solid 20.3717
  Impulse FP iterations last/mean/max 14/14.65/16
Step   600/2000   30.0% | t 30.000 | ETA 4m 56s | step 0.20s | KE 29.7587 | drift -3.81% | fluid 9.1624 | solid 20.5964
  Impulse FP iterations last/mean/max 14/14.62/16
Step   700/2000   35.0% | t 35.000 | ETA 4m 34s | step 0.21s | KE 29.7363 | drift -3.88% | fluid 8.5395 | solid 21.1968
  Impulse FP iterations last/mean/max 14/14.59/16
Step   800/2000   40.0% | t 40.000 | ETA 4m 13s | step 0.20s | KE 29.7294 | drift -3.90% | fluid 10.2008 | solid 19.5286
  Impulse FP iterations last/mean/max 14/14.56/16
Step   900/2000   45.0% | t 45.000 | ETA 3m 51s | step 0.21s | KE 29.7379 | drift -3.87% | fluid 8.9716 | solid 20.7663
  Impulse FP iterations last/mean/max 14/14.54/16
Step  1000/2000   50.0% | t 50.000 | ETA 3m 30s | step 0.20s | KE 29.7392 | drift -3.87% | fluid 8.9115 | solid 20.8277
  Impulse FP iterations last/mean/max 14/14.53/16
Step  1100/2000   55.0% | t 55.000 | ETA 3m 9s | step 0.21s | KE 29.7533 | drift -3.82% | fluid 9.4331 | solid 20.3202
  Impulse FP iterations last/mean/max 15/14.51/16
Step  1200/2000   60.0% | t 60.000 | ETA 2m 47s | step 0.21s | KE 29.7712 | drift -3.76% | fluid 9.6833 | solid 20.0879
  Impulse FP iterations last/mean/max 14/14.50/16
Step  1300/2000   65.0% | t 65.000 | ETA 2m 26s | step 0.19s | KE 29.7800 | drift -3.74% | fluid 9.4950 | solid 20.2850
  Impulse FP iterations last/mean/max 14/14.48/16
Step  1400/2000   70.0% | t 70.000 | ETA 2m 5s | step 0.21s | KE 29.7846 | drift -3.72% | fluid 8.6149 | solid 21.1697
  Impulse FP iterations last/mean/max 14/14.48/16
Step  1500/2000   75.0% | t 75.000 | ETA 1m 44s | step 0.20s | KE 29.7910 | drift -3.70% | fluid 10.0060 | solid 19.7850
  Impulse FP iterations last/mean/max 15/14.47/16
Step  1600/2000   80.0% | t 80.000 | ETA 1m 23s | step 0.20s | KE 29.8071 | drift -3.65% | fluid 9.5484 | solid 20.2586
  Impulse FP iterations last/mean/max 14/14.45/16
Step  1700/2000   85.0% | t 85.000 | ETA 1m 2s | step 0.21s | KE 29.8134 | drift -3.63% | fluid 8.7044 | solid 21.1090
  Impulse FP iterations last/mean/max 15/14.45/16
Step  1800/2000   90.0% | t 90.000 | ETA 41s | step 0.21s | KE 29.8206 | drift -3.60% | fluid 9.4175 | solid 20.4031
  Impulse FP iterations last/mean/max 14/14.45/16
Step  1900/2000   95.0% | t 95.000 | ETA 20s | step 0.17s | KE 29.8234 | drift -3.60% | fluid 9.3792 | solid 20.4442
  Impulse FP iterations last/mean/max 14/14.44/16
Solver finished successfully - good job!
Results saved successfully.

================== Run summary ==================
  Bodies:            2
  Triangles / nodes: 256 / 516
  Timesteps:         2000  (dt = 0.05)
  Simulated time:    0 -> 100
  First-step setup:  0.431 s
  Mean time/step:    0.2045 s  (excl. first step)
  Total wall time:   6m 49s
  Impulse FP iters last/mean/max: 14 / 14.444 / 16
  Approx impulse solves/step:     14.444
  Impulse start cache hits/direct: 1999 / 1
  Impulse global drift P/H:       5.621075e-8 / 2.069170e-2
  Impulse per-body max drift P/H: 8.479869e-8 / 1.150689e-2
  CPU cores:         256 available, 8 Rayon worker thread(s)
  Started:           2026-06-24 01:58:15
  Finished:          2026-06-24 02:05:05
  Output file:       /work/e643/e643/shared/multi_ellip/studies/two_body_paper_sweeps/runs/ellipsoid_1_0p8_0p6/ellipsoid_1_0p8_0p6_rho0p3_E30_sep5_run03_impulse_noproj/multiple_body_complete.dat
================================================
