
================ Simulation setup ================
  Run label:         /work/e643/e643/shared/multi_ellip/studies/two_body_paper_sweeps/runs/spheroid_1_0p7_0p7/spheroid_1_0p7_0p7_rho0p1_E0p55_sep8_run04_impulse_noproj/
  Started:           2026-06-24 01:58:39
  Input file:        /work/e643/e643/shared/multi_ellip/studies/two_body_paper_sweeps/runs/spheroid_1_0p7_0p7/spheroid_1_0p7_0p7_rho0p1_E0p55_sep8_run04_impulse_noproj/input.txt
  Output file:       /work/e643/e643/shared/multi_ellip/studies/two_body_paper_sweeps/runs/spheroid_1_0p7_0p7/spheroid_1_0p7_0p7_rho0p1_E0p55_sep8_run04_impulse_noproj/multiple_body_complete.dat
  Bodies:            2
  Fluid density:     1
  Mesh:              ndiv 2 -> 256 triangles / 516 nodes
  Simulated time:    0 -> 100  (dt = 0.05, ~2000 steps)
  Output cadence:    every 1 step(s)
  Output rows:       ~2001
  Progress cadence:  every 100 step(s)
  CPU cores:         256 available, 8 Rayon worker thread(s)
  Strong coupling:   disabled
  Impulse scheme:    enabled
  Hamiltonian step:  disabled
  Hamiltonian midpt: disabled
  Variational step:  disabled
  Energy projection: disabled
  Projection particular metric: Euclidean
  Fluid KE gradient: disabled  (eps = 0.001, scale = 1, linear = 1, angular = 1)
  Fluid KE discrete gradient: disabled
  Impulse pair metric correction: disabled  (mode = pair discrete-gradient, cutoff = all pairs, inner/outer = 0/0, eps = 0.001, linear scale = 1, angular scale = 0)
  Impulse metric correction: disabled  (internal load constraint = disabled)
  Impulse variational defect probe: disabled
  Impulse quadratic pressure: disabled  (scale = 1)
  Added-mass stab:   disabled
  Exact BEM geometry: disabled
  Exact singular BEM: disabled
  Legacy singular SLP diagnostic: disabled
  Phi-dot blend:     0 (off)

  Solver guidance:
    - Strong coupling: use for stiff close-coupled runs; slower but more implicit.
    - Impulse scheme: use when impulse/momentum conservation or KE drift is the focus. Recommended.
    - Added-mass stab: use for higher mesh counts (ndiv > 3) to preserve stability - deprecated.
================================================
Solver starting - good luck!

Initial state:
  Body  1
    density:          0.100000
    shape axes ratio: (1.000000, 0.700000, 0.700000)
    initial KE ratio: 0.550000
    position:         (-4.000000, 0.000000, 0.000000)
    velocity:         (4.142465, -2.084056, -3.029189)
    angular velocity: (3.538395, -3.079262, 4.180469)
    orientation:      (w=0.643692, i=-0.522279, j=-0.554205, k=0.075772)
  Body  2
    density:          0.100000
    shape axes ratio: (1.000000, 0.700000, 0.700000)
    initial KE ratio: 0.550000
    position:         (4.000000, 0.000000, 0.000000)
    velocity:         (4.298523, -2.162568, -3.143306)
    angular velocity: (-2.151146, 5.903471, 0.003711)
    orientation:      (w=0.395429, i=0.441611, j=0.619384, k=0.514762)

Preparing first step: implicit scheme, no bootstrap passes required.
First step may take longer than later steps.

First step completed in 0.391 s.

Step   100/2000    5.0% | t 5.000 | ETA 7m 7s | step 0.24s | KE 109.4631 | drift +6.87% | fluid 83.0279 | solid 26.4352
  Impulse FP iterations last/mean/max 16/16.13/18
Step   200/2000   10.0% | t 10.000 | ETA 6m 41s | step 0.22s | KE 103.7025 | drift +1.24% | fluid 81.3714 | solid 22.3310
  Impulse FP iterations last/mean/max 17/16.29/18
Step   300/2000   15.0% | t 15.000 | ETA 6m 18s | step 0.23s | KE 104.1261 | drift +1.66% | fluid 83.2939 | solid 20.8322
  Impulse FP iterations last/mean/max 17/16.36/19
Step   400/2000   20.0% | t 20.000 | ETA 5m 56s | step 0.20s | KE 104.1491 | drift +1.68% | fluid 82.3497 | solid 21.7994
  Impulse FP iterations last/mean/max 17/16.34/19
Step   500/2000   25.0% | t 25.000 | ETA 5m 31s | step 0.21s | KE 103.9431 | drift +1.48% | fluid 82.4888 | solid 21.4544
  Impulse FP iterations last/mean/max 16/16.30/19
Step   600/2000   30.0% | t 30.000 | ETA 5m 8s | step 0.20s | KE 104.0975 | drift +1.63% | fluid 82.4084 | solid 21.6891
  Impulse FP iterations last/mean/max 16/16.27/19
Step   700/2000   35.0% | t 35.000 | ETA 4m 45s | step 0.22s | KE 104.2378 | drift +1.77% | fluid 82.2296 | solid 22.0083
  Impulse FP iterations last/mean/max 16/16.26/19
Step   800/2000   40.0% | t 40.000 | ETA 4m 22s | step 0.20s | KE 104.0012 | drift +1.54% | fluid 83.4760 | solid 20.5252
  Impulse FP iterations last/mean/max 16/16.24/19
Step   900/2000   45.0% | t 45.000 | ETA 4m 0s | step 0.22s | KE 103.9252 | drift +1.46% | fluid 81.4513 | solid 22.4740
  Impulse FP iterations last/mean/max 17/16.23/20
Step  1000/2000   50.0% | t 50.000 | ETA 3m 38s | step 0.23s | KE 104.2520 | drift +1.78% | fluid 82.7980 | solid 21.4540
  Impulse FP iterations last/mean/max 16/16.22/20
Step  1100/2000   55.0% | t 55.000 | ETA 3m 15s | step 0.20s | KE 103.9462 | drift +1.48% | fluid 82.4796 | solid 21.4666
  Impulse FP iterations last/mean/max 16/16.20/20
Step  1200/2000   60.0% | t 60.000 | ETA 2m 54s | step 0.20s | KE 104.1557 | drift +1.69% | fluid 82.9234 | solid 21.2323
  Impulse FP iterations last/mean/max 16/16.20/20
Step  1300/2000   65.0% | t 65.000 | ETA 2m 32s | step 0.23s | KE 104.0540 | drift +1.59% | fluid 82.1196 | solid 21.9344
  Impulse FP iterations last/mean/max 17/16.22/20
Step  1400/2000   70.0% | t 70.000 | ETA 2m 10s | step 0.19s | KE 104.0142 | drift +1.55% | fluid 82.1285 | solid 21.8856
  Impulse FP iterations last/mean/max 17/16.23/20
Step  1500/2000   75.0% | t 75.000 | ETA 1m 47s | step 0.19s | KE 104.2240 | drift +1.75% | fluid 83.3504 | solid 20.8736
  Impulse FP iterations last/mean/max 16/16.25/20
Step  1600/2000   80.0% | t 80.000 | ETA 1m 24s | step 0.19s | KE 103.9095 | drift +1.45% | fluid 82.0195 | solid 21.8901
  Impulse FP iterations last/mean/max 17/16.25/20
Step  1700/2000   85.0% | t 85.000 | ETA 1m 3s | step 0.18s | KE 104.1624 | drift +1.69% | fluid 82.6817 | solid 21.4807
  Impulse FP iterations last/mean/max 16/16.24/20
Step  1800/2000   90.0% | t 90.000 | ETA 42s | step 0.22s | KE 104.0376 | drift +1.57% | fluid 81.8339 | solid 22.2037
  Impulse FP iterations last/mean/max 18/16.24/20
Step  1900/2000   95.0% | t 95.000 | ETA 21s | step 0.21s | KE 104.0081 | drift +1.54% | fluid 83.4507 | solid 20.5574
  Impulse FP iterations last/mean/max 17/16.23/20
Solver finished successfully - good job!
Results saved successfully.

================== Run summary ==================
  Bodies:            2
  Triangles / nodes: 256 / 516
  Timesteps:         2000  (dt = 0.05)
  Simulated time:    0 -> 100
  First-step setup:  0.391 s
  Mean time/step:    0.2090 s  (excl. first step)
  Total wall time:   6m 58s
  Impulse FP iters last/mean/max: 16 / 16.230 / 20
  Approx impulse solves/step:     16.231
  Impulse start cache hits/direct: 1999 / 1
  Impulse global drift P/H:       5.762748e-8 / 1.477893e-2
  Impulse per-body max drift P/H: 6.068501e-8 / 4.303023e-3
  CPU cores:         256 available, 8 Rayon worker thread(s)
  Started:           2026-06-24 01:58:39
  Finished:          2026-06-24 02:05:38
  Output file:       /work/e643/e643/shared/multi_ellip/studies/two_body_paper_sweeps/runs/spheroid_1_0p7_0p7/spheroid_1_0p7_0p7_rho0p1_E0p55_sep8_run04_impulse_noproj/multiple_body_complete.dat
================================================
