
================ Simulation setup ================
  Run label:         /work/e643/e643/shared/multi_ellip/studies/departing_sphericity_sweep/runs/triaxial/heterogeneous_sphere/triaxial_heterogeneous_sphere_eps0p1_rho1_E0p5_sep8_run10_impulse_noproj/
  Started:           2026-06-24 02:46:58
  Input file:        /work/e643/e643/shared/multi_ellip/studies/departing_sphericity_sweep/runs/triaxial/heterogeneous_sphere/triaxial_heterogeneous_sphere_eps0p1_rho1_E0p5_sep8_run10_impulse_noproj/input.txt
  Output file:       /work/e643/e643/shared/multi_ellip/studies/departing_sphericity_sweep/runs/triaxial/heterogeneous_sphere/triaxial_heterogeneous_sphere_eps0p1_rho1_E0p5_sep8_run10_impulse_noproj/multiple_body_complete.dat
  Bodies:            2
  Fluid density:     1
  Mesh:              ndiv 2 -> 256 triangles / 516 nodes
  Simulated time:    0 -> 100  (dt = 0.05, ~2000 steps)
  Output cadence:    every 1 step(s)
  Output rows:       ~2001
  Progress cadence:  every 100 step(s)
  CPU cores:         256 available, 8 Rayon worker thread(s)
  Strong coupling:   disabled
  Impulse scheme:    enabled
  Hamiltonian step:  disabled
  Hamiltonian midpt: disabled
  Variational step:  disabled
  Energy projection: disabled
  Projection particular metric: Euclidean
  Fluid KE gradient: disabled  (eps = 0.001, scale = 1, linear = 1, angular = 1)
  Fluid KE discrete gradient: disabled
  Impulse pair metric correction: disabled  (mode = pair discrete-gradient, cutoff = all pairs, inner/outer = 0/0, eps = 0.001, linear scale = 1, angular scale = 0)
  Impulse metric correction: disabled  (internal load constraint = disabled)
  Impulse variational defect probe: disabled
  Impulse quadratic pressure: disabled  (scale = 1)
  Added-mass stab:   disabled
  Exact BEM geometry: disabled
  Exact singular BEM: disabled
  Legacy singular SLP diagnostic: disabled
  Phi-dot blend:     0 (off)

  Solver guidance:
    - Strong coupling: use for stiff close-coupled runs; slower but more implicit.
    - Impulse scheme: use when impulse/momentum conservation or KE drift is the focus. Recommended.
    - Added-mass stab: use for higher mesh counts (ndiv > 3) to preserve stability - deprecated.
================================================
Solver starting - good luck!

Initial state:
  Body  1
    density:          1.000000
    shape axes ratio: (1.000000, 0.909091, 0.826446)
    initial KE ratio: 0.500000
    position:         (-4.000000, 0.000000, 0.000000)
    velocity:         (2.843453, -5.029077, 0.703425)
    angular velocity: (-1.917394, 2.583158, 5.397158)
    orientation:      (w=-0.524135, i=-0.827345, j=-0.158207, k=0.125512)
  Body  2
    density:          1.000000
    shape axes ratio: (1.000000, 1.000000, 1.000000)
    initial KE ratio: 0.500000
    position:         (4.000000, 0.000000, 0.000000)
    velocity:         (2.745698, -4.856182, 0.679242)
    angular velocity: (-3.599386, 5.076965, 0.864445)
    orientation:      (w=-0.123200, i=-0.925527, j=0.353717, k=0.055729)

Preparing first step: implicit scheme, no bootstrap passes required.
First step may take longer than later steps.

First step completed in 0.285 s.

Step   100/2000    5.0% | t 5.000 | ETA 4m 8s | step 0.13s | KE 290.5387 | drift +2.76% | fluid 78.0061 | solid 212.5326
  Impulse FP iterations last/mean/max 9/9.00/10
Step   200/2000   10.0% | t 10.000 | ETA 3m 54s | step 0.12s | KE 293.2114 | drift +3.71% | fluid 77.8922 | solid 215.3191
  Impulse FP iterations last/mean/max 9/9.01/10
Step   300/2000   15.0% | t 15.000 | ETA 3m 39s | step 0.13s | KE 292.3535 | drift +3.40% | fluid 76.8866 | solid 215.4669
  Impulse FP iterations last/mean/max 9/8.99/10
Step   400/2000   20.0% | t 20.000 | ETA 3m 27s | step 0.12s | KE 289.9244 | drift +2.54% | fluid 79.1227 | solid 210.8017
  Impulse FP iterations last/mean/max 9/9.01/10
Step   500/2000   25.0% | t 25.000 | ETA 3m 13s | step 0.12s | KE 289.2604 | drift +2.31% | fluid 78.1881 | solid 211.0723
  Impulse FP iterations last/mean/max 9/8.99/10
Step   600/2000   30.0% | t 30.000 | ETA 3m 0s | step 0.12s | KE 288.6947 | drift +2.11% | fluid 79.7856 | solid 208.9091
  Impulse FP iterations last/mean/max 9/9.00/10
Step   700/2000   35.0% | t 35.000 | ETA 2m 47s | step 0.13s | KE 288.8466 | drift +2.16% | fluid 77.9125 | solid 210.9342
  Impulse FP iterations last/mean/max 9/8.98/10
Step   800/2000   40.0% | t 40.000 | ETA 2m 34s | step 0.13s | KE 289.3747 | drift +2.35% | fluid 76.9257 | solid 212.4489
  Impulse FP iterations last/mean/max 9/8.98/10
Step   900/2000   45.0% | t 45.000 | ETA 2m 21s | step 0.12s | KE 289.6636 | drift +2.45% | fluid 75.3068 | solid 214.3568
  Impulse FP iterations last/mean/max 9/8.97/10
Step  1000/2000   50.0% | t 50.000 | ETA 2m 8s | step 0.13s | KE 289.7607 | drift +2.49% | fluid 78.3158 | solid 211.4449
  Impulse FP iterations last/mean/max 9/8.98/10
Step  1100/2000   55.0% | t 55.000 | ETA 1m 55s | step 0.14s | KE 290.0431 | drift +2.59% | fluid 78.1499 | solid 211.8932
  Impulse FP iterations last/mean/max 9/8.98/10
Step  1200/2000   60.0% | t 60.000 | ETA 1m 42s | step 0.13s | KE 290.3649 | drift +2.70% | fluid 77.0414 | solid 213.3235
  Impulse FP iterations last/mean/max 9/8.97/10
Step  1300/2000   65.0% | t 65.000 | ETA 1m 29s | step 0.13s | KE 290.2296 | drift +2.65% | fluid 78.0691 | solid 212.1605
  Impulse FP iterations last/mean/max 9/8.98/10
Step  1400/2000   70.0% | t 70.000 | ETA 1m 17s | step 0.12s | KE 290.4408 | drift +2.73% | fluid 75.7874 | solid 214.6534
  Impulse FP iterations last/mean/max 8/8.97/10
Step  1500/2000   75.0% | t 75.000 | ETA 1m 4s | step 0.12s | KE 290.1655 | drift +2.63% | fluid 77.7201 | solid 212.4454
  Impulse FP iterations last/mean/max 9/8.98/10
Step  1600/2000   80.0% | t 80.000 | ETA 51s | step 0.13s | KE 290.1750 | drift +2.63% | fluid 78.4994 | solid 211.6756
  Impulse FP iterations last/mean/max 9/8.97/10
Step  1700/2000   85.0% | t 85.000 | ETA 38s | step 0.13s | KE 289.9683 | drift +2.56% | fluid 79.3387 | solid 210.6297
  Impulse FP iterations last/mean/max 9/8.98/10
Step  1800/2000   90.0% | t 90.000 | ETA 25s | step 0.09s | KE 289.9690 | drift +2.56% | fluid 77.1289 | solid 212.8400
  Impulse FP iterations last/mean/max 8/8.97/10
Step  1900/2000   95.0% | t 95.000 | ETA 12s | step 0.12s | KE 290.0705 | drift +2.60% | fluid 76.0370 | solid 214.0336
  Impulse FP iterations last/mean/max 9/8.98/10
Solver finished successfully - good job!
Results saved successfully.

================== Run summary ==================
  Bodies:            2
  Triangles / nodes: 256 / 516
  Timesteps:         2000  (dt = 0.05)
  Simulated time:    0 -> 100
  First-step setup:  0.285 s
  Mean time/step:    0.1253 s  (excl. first step)
  Total wall time:   4m 10s
  Impulse FP iters last/mean/max: 9 / 8.974 / 10
  Approx impulse solves/step:     8.975
  Impulse start cache hits/direct: 1999 / 1
  Impulse global drift P/H:       1.814556e-8 / 9.185802e-3
  Impulse per-body max drift P/H: 3.574738e-8 / 1.630339e-3
  CPU cores:         256 available, 8 Rayon worker thread(s)
  Started:           2026-06-24 02:46:58
  Finished:          2026-06-24 02:51:09
  Output file:       /work/e643/e643/shared/multi_ellip/studies/departing_sphericity_sweep/runs/triaxial/heterogeneous_sphere/triaxial_heterogeneous_sphere_eps0p1_rho1_E0p5_sep8_run10_impulse_noproj/multiple_body_complete.dat
================================================
