
================ Simulation setup ================
  Run label:         /work/e643/e643/shared/multi_ellip/studies/two_body_paper_sweeps/runs/spheroid_1_0p7_0p7/spheroid_1_0p7_0p7_rho1_E4_sep8_run04_impulse_noproj/
  Started:           2026-06-24 01:34:41
  Input file:        /work/e643/e643/shared/multi_ellip/studies/two_body_paper_sweeps/runs/spheroid_1_0p7_0p7/spheroid_1_0p7_0p7_rho1_E4_sep8_run04_impulse_noproj/input.txt
  Output file:       /work/e643/e643/shared/multi_ellip/studies/two_body_paper_sweeps/runs/spheroid_1_0p7_0p7/spheroid_1_0p7_0p7_rho1_E4_sep8_run04_impulse_noproj/multiple_body_complete.dat
  Bodies:            2
  Fluid density:     1
  Mesh:              ndiv 2 -> 256 triangles / 516 nodes
  Simulated time:    0 -> 100  (dt = 0.05, ~2000 steps)
  Output cadence:    every 1 step(s)
  Output rows:       ~2001
  Progress cadence:  every 100 step(s)
  CPU cores:         256 available, 8 Rayon worker thread(s)
  Strong coupling:   disabled
  Impulse scheme:    enabled
  Hamiltonian step:  disabled
  Hamiltonian midpt: disabled
  Variational step:  disabled
  Energy projection: disabled
  Projection particular metric: Euclidean
  Fluid KE gradient: disabled  (eps = 0.001, scale = 1, linear = 1, angular = 1)
  Fluid KE discrete gradient: disabled
  Impulse pair metric correction: disabled  (mode = pair discrete-gradient, cutoff = all pairs, inner/outer = 0/0, eps = 0.001, linear scale = 1, angular scale = 0)
  Impulse metric correction: disabled  (internal load constraint = disabled)
  Impulse variational defect probe: disabled
  Impulse quadratic pressure: disabled  (scale = 1)
  Added-mass stab:   disabled
  Exact BEM geometry: disabled
  Exact singular BEM: disabled
  Legacy singular SLP diagnostic: disabled
  Phi-dot blend:     0 (off)

  Solver guidance:
    - Strong coupling: use for stiff close-coupled runs; slower but more implicit.
    - Impulse scheme: use when impulse/momentum conservation or KE drift is the focus. Recommended.
    - Added-mass stab: use for higher mesh counts (ndiv > 3) to preserve stability - deprecated.
================================================
Solver starting - good luck!

Initial state:
  Body  1
    density:          1.000000
    shape axes ratio: (1.000000, 0.700000, 0.700000)
    initial KE ratio: 4.000000
    position:         (-4.000000, 0.000000, 0.000000)
    velocity:         (1.882880, -0.378488, -0.762533)
    angular velocity: (-3.356177, -3.601962, 3.903891)
    orientation:      (w=-0.280496, i=0.277451, j=-0.864299, k=-0.311979)
  Body  2
    density:          1.000000
    shape axes ratio: (1.000000, 0.700000, 0.700000)
    initial KE ratio: 4.000000
    position:         (4.000000, 0.000000, 0.000000)
    velocity:         (1.919120, -0.385773, -0.777209)
    angular velocity: (2.686838, 5.678888, -0.097726)
    orientation:      (w=-0.709122, i=-0.543777, j=-0.291908, k=-0.340942)

Preparing first step: implicit scheme, no bootstrap passes required.
First step may take longer than later steps.

First step completed in 0.351 s.

Step   100/2000    5.0% | t 5.000 | ETA 4m 29s | step 0.14s | KE 98.8278 | drift -0.03% | fluid 14.8889 | solid 83.9388
  Impulse FP iterations last/mean/max 10/9.86/10
Step   200/2000   10.0% | t 10.000 | ETA 4m 13s | step 0.14s | KE 98.4327 | drift -0.43% | fluid 14.9225 | solid 83.5102
  Impulse FP iterations last/mean/max 9/9.84/10
Step   300/2000   15.0% | t 15.000 | ETA 3m 59s | step 0.14s | KE 97.3903 | drift -1.49% | fluid 14.3309 | solid 83.0595
  Impulse FP iterations last/mean/max 10/9.84/10
Step   400/2000   20.0% | t 20.000 | ETA 3m 45s | step 0.14s | KE 95.7601 | drift -3.14% | fluid 14.1661 | solid 81.5940
  Impulse FP iterations last/mean/max 9/9.84/10
Step   500/2000   25.0% | t 25.000 | ETA 3m 31s | step 0.13s | KE 93.9606 | drift -4.96% | fluid 14.1395 | solid 79.8212
  Impulse FP iterations last/mean/max 9/9.82/10
Step   600/2000   30.0% | t 30.000 | ETA 3m 16s | step 0.15s | KE 92.3591 | drift -6.58% | fluid 13.9928 | solid 78.3663
  Impulse FP iterations last/mean/max 10/9.81/10
Step   700/2000   35.0% | t 35.000 | ETA 3m 2s | step 0.14s | KE 91.1767 | drift -7.77% | fluid 14.0573 | solid 77.1195
  Impulse FP iterations last/mean/max 10/9.81/10
Step   800/2000   40.0% | t 40.000 | ETA 2m 48s | step 0.13s | KE 90.5695 | drift -8.39% | fluid 14.4283 | solid 76.1412
  Impulse FP iterations last/mean/max 9/9.81/10
Step   900/2000   45.0% | t 45.000 | ETA 2m 34s | step 0.13s | KE 90.5816 | drift -8.37% | fluid 14.6949 | solid 75.8867
  Impulse FP iterations last/mean/max 9/9.81/10
Step  1000/2000   50.0% | t 50.000 | ETA 2m 20s | step 0.15s | KE 90.9424 | drift -8.01% | fluid 14.7119 | solid 76.2305
  Impulse FP iterations last/mean/max 10/9.81/10
Step  1100/2000   55.0% | t 55.000 | ETA 2m 6s | step 0.14s | KE 91.1863 | drift -7.76% | fluid 14.6641 | solid 76.5222
  Impulse FP iterations last/mean/max 10/9.80/10
Step  1200/2000   60.0% | t 60.000 | ETA 1m 52s | step 0.14s | KE 91.2314 | drift -7.72% | fluid 14.6024 | solid 76.6290
  Impulse FP iterations last/mean/max 10/9.80/10
Step  1300/2000   65.0% | t 65.000 | ETA 1m 38s | step 0.14s | KE 91.2094 | drift -7.74% | fluid 14.5221 | solid 76.6873
  Impulse FP iterations last/mean/max 10/9.80/10
Step  1400/2000   70.0% | t 70.000 | ETA 1m 24s | step 0.13s | KE 91.1961 | drift -7.75% | fluid 14.4262 | solid 76.7699
  Impulse FP iterations last/mean/max 9/9.78/10
Step  1500/2000   75.0% | t 75.000 | ETA 1m 10s | step 0.14s | KE 91.2022 | drift -7.75% | fluid 14.3254 | solid 76.8768
  Impulse FP iterations last/mean/max 10/9.76/10
Step  1600/2000   80.0% | t 80.000 | ETA 55s | step 0.14s | KE 91.2089 | drift -7.74% | fluid 14.2294 | solid 76.9795
  Impulse FP iterations last/mean/max 10/9.75/10
Step  1700/2000   85.0% | t 85.000 | ETA 41s | step 0.13s | KE 91.1833 | drift -7.77% | fluid 14.1386 | solid 77.0446
  Impulse FP iterations last/mean/max 10/9.73/10
Step  1800/2000   90.0% | t 90.000 | ETA 27s | step 0.13s | KE 91.0983 | drift -7.85% | fluid 14.0451 | solid 77.0532
  Impulse FP iterations last/mean/max 10/9.71/10
Step  1900/2000   95.0% | t 95.000 | ETA 13s | step 0.13s | KE 90.9675 | drift -7.98% | fluid 13.9442 | solid 77.0233
  Impulse FP iterations last/mean/max 10/9.70/10
Solver finished successfully - good job!
Results saved successfully.

================== Run summary ==================
  Bodies:            2
  Triangles / nodes: 256 / 516
  Timesteps:         2000  (dt = 0.05)
  Simulated time:    0 -> 100
  First-step setup:  0.351 s
  Mean time/step:    0.1359 s  (excl. first step)
  Total wall time:   4m 31s
  Impulse FP iters last/mean/max: 10 / 9.692 / 10
  Approx impulse solves/step:     9.693
  Impulse start cache hits/direct: 1999 / 1
  Impulse global drift P/H:       1.082908e-8 / 2.643080e-2
  Impulse per-body max drift P/H: 2.219921e-8 / 6.766094e-3
  CPU cores:         256 available, 8 Rayon worker thread(s)
  Started:           2026-06-24 01:34:41
  Finished:          2026-06-24 01:39:14
  Output file:       /work/e643/e643/shared/multi_ellip/studies/two_body_paper_sweeps/runs/spheroid_1_0p7_0p7/spheroid_1_0p7_0p7_rho1_E4_sep8_run04_impulse_noproj/multiple_body_complete.dat
================================================
