
================ Simulation setup ================
  Run label:         /work/e643/e643/shared/multi_ellip/studies/two_body_paper_sweeps/runs/spheroid_1_0p7_0p7/spheroid_1_0p7_0p7_rho10_E4_sep3_run05_impulse_noproj/
  Started:           2026-06-24 01:18:35
  Input file:        /work/e643/e643/shared/multi_ellip/studies/two_body_paper_sweeps/runs/spheroid_1_0p7_0p7/spheroid_1_0p7_0p7_rho10_E4_sep3_run05_impulse_noproj/input.txt
  Output file:       /work/e643/e643/shared/multi_ellip/studies/two_body_paper_sweeps/runs/spheroid_1_0p7_0p7/spheroid_1_0p7_0p7_rho10_E4_sep3_run05_impulse_noproj/multiple_body_complete.dat
  Bodies:            2
  Fluid density:     1
  Mesh:              ndiv 2 -> 256 triangles / 516 nodes
  Simulated time:    0 -> 100  (dt = 0.05, ~2000 steps)
  Output cadence:    every 1 step(s)
  Output rows:       ~2001
  Progress cadence:  every 100 step(s)
  CPU cores:         256 available, 8 Rayon worker thread(s)
  Strong coupling:   disabled
  Impulse scheme:    enabled
  Hamiltonian step:  disabled
  Hamiltonian midpt: disabled
  Variational step:  disabled
  Energy projection: disabled
  Projection particular metric: Euclidean
  Fluid KE gradient: disabled  (eps = 0.001, scale = 1, linear = 1, angular = 1)
  Fluid KE discrete gradient: disabled
  Impulse pair metric correction: disabled  (mode = pair discrete-gradient, cutoff = all pairs, inner/outer = 0/0, eps = 0.001, linear scale = 1, angular scale = 0)
  Impulse metric correction: disabled  (internal load constraint = disabled)
  Impulse variational defect probe: disabled
  Impulse quadratic pressure: disabled  (scale = 1)
  Added-mass stab:   disabled
  Exact BEM geometry: disabled
  Exact singular BEM: disabled
  Legacy singular SLP diagnostic: disabled
  Phi-dot blend:     0 (off)

  Solver guidance:
    - Strong coupling: use for stiff close-coupled runs; slower but more implicit.
    - Impulse scheme: use when impulse/momentum conservation or KE drift is the focus. Recommended.
    - Added-mass stab: use for higher mesh counts (ndiv > 3) to preserve stability - deprecated.
================================================
Solver starting - good luck!

Initial state:
  Body  1
    density:          10.000000
    shape axes ratio: (1.000000, 0.700000, 0.700000)
    initial KE ratio: 4.000000
    position:         (-1.500000, 0.000000, 0.000000)
    velocity:         (-0.397230, -1.068665, 1.641941)
    angular velocity: (-4.236247, 4.571991, 0.793427)
    orientation:      (w=0.023243, i=-0.855137, j=0.240540, k=0.458629)
  Body  2
    density:          10.000000
    shape axes ratio: (1.000000, 0.700000, 0.700000)
    initial KE ratio: 4.000000
    position:         (1.500000, 0.000000, 0.000000)
    velocity:         (-0.431997, -1.162196, 1.785647)
    angular velocity: (0.389480, 4.896168, 3.918452)
    orientation:      (w=-0.029593, i=0.005865, j=-0.706514, k=0.707055)

Preparing first step: implicit scheme, no bootstrap passes required.
First step may take longer than later steps.

First step completed in 0.251 s.

Step   100/2000    5.0% | t 5.000 | ETA 2m 56s | step 0.10s | KE 922.5755 | drift -0.26% | fluid 17.3251 | solid 905.2504
  Impulse FP iterations last/mean/max 7/6.98/8
Step   200/2000   10.0% | t 10.000 | ETA 2m 56s | step 0.10s | KE 944.8542 | drift +2.14% | fluid 15.3720 | solid 929.4822
  Impulse FP iterations last/mean/max 7/6.99/8
Step   300/2000   15.0% | t 15.000 | ETA 2m 47s | step 0.10s | KE 970.0531 | drift +4.87% | fluid 15.9064 | solid 954.1467
  Impulse FP iterations last/mean/max 7/6.98/8
Step   400/2000   20.0% | t 20.000 | ETA 2m 38s | step 0.10s | KE 987.6985 | drift +6.78% | fluid 14.4203 | solid 973.2781
  Impulse FP iterations last/mean/max 7/6.96/8
Step   500/2000   25.0% | t 25.000 | ETA 2m 27s | step 0.09s | KE 998.4474 | drift +7.94% | fluid 16.8138 | solid 981.6335
  Impulse FP iterations last/mean/max 7/6.89/8
Step   600/2000   30.0% | t 30.000 | ETA 2m 16s | step 0.09s | KE 1004.8018 | drift +8.62% | fluid 14.2587 | solid 990.5431
  Impulse FP iterations last/mean/max 6/6.82/8
Step   700/2000   35.0% | t 35.000 | ETA 2m 6s | step 0.10s | KE 1008.5472 | drift +9.03% | fluid 15.5330 | solid 993.0143
  Impulse FP iterations last/mean/max 7/6.78/8
Step   800/2000   40.0% | t 40.000 | ETA 1m 55s | step 0.08s | KE 1010.9784 | drift +9.29% | fluid 13.9268 | solid 997.0516
  Impulse FP iterations last/mean/max 6/6.75/8
Step   900/2000   45.0% | t 45.000 | ETA 1m 45s | step 0.10s | KE 1012.4253 | drift +9.45% | fluid 14.9469 | solid 997.4785
  Impulse FP iterations last/mean/max 7/6.71/8
Step  1000/2000   50.0% | t 50.000 | ETA 1m 35s | step 0.08s | KE 1013.4917 | drift +9.56% | fluid 14.8479 | solid 998.6438
  Impulse FP iterations last/mean/max 6/6.69/8
Step  1100/2000   55.0% | t 55.000 | ETA 1m 25s | step 0.10s | KE 1014.1800 | drift +9.64% | fluid 14.3470 | solid 999.8329
  Impulse FP iterations last/mean/max 7/6.68/8
Step  1200/2000   60.0% | t 60.000 | ETA 1m 16s | step 0.08s | KE 1014.6256 | drift +9.69% | fluid 16.7085 | solid 997.9171
  Impulse FP iterations last/mean/max 6/6.66/8
Step  1300/2000   65.0% | t 65.000 | ETA 1m 6s | step 0.09s | KE 1015.0764 | drift +9.73% | fluid 13.9460 | solid 1001.1304
  Impulse FP iterations last/mean/max 6/6.65/8
Step  1400/2000   70.0% | t 70.000 | ETA 56s | step 0.09s | KE 1015.2252 | drift +9.75% | fluid 17.5909 | solid 997.6343
  Impulse FP iterations last/mean/max 7/6.64/8
Step  1500/2000   75.0% | t 75.000 | ETA 47s | step 0.08s | KE 1015.5380 | drift +9.78% | fluid 14.8749 | solid 1000.6631
  Impulse FP iterations last/mean/max 6/6.62/8
Step  1600/2000   80.0% | t 80.000 | ETA 37s | step 0.10s | KE 1015.6303 | drift +9.79% | fluid 16.5816 | solid 999.0488
  Impulse FP iterations last/mean/max 7/6.62/8
Step  1700/2000   85.0% | t 85.000 | ETA 28s | step 0.09s | KE 1015.7657 | drift +9.81% | fluid 16.5187 | solid 999.2470
  Impulse FP iterations last/mean/max 6/6.60/8
Step  1800/2000   90.0% | t 90.000 | ETA 18s | step 0.09s | KE 1015.9309 | drift +9.83% | fluid 14.7491 | solid 1001.1818
  Impulse FP iterations last/mean/max 7/6.61/8
Step  1900/2000   95.0% | t 95.000 | ETA 9s | step 0.08s | KE 1015.9154 | drift +9.83% | fluid 17.5096 | solid 998.4057
  Impulse FP iterations last/mean/max 8/6.60/8
Solver finished successfully - good job!
Results saved successfully.

================== Run summary ==================
  Bodies:            2
  Triangles / nodes: 256 / 516
  Timesteps:         2000  (dt = 0.05)
  Simulated time:    0 -> 100
  First-step setup:  0.251 s
  Mean time/step:    0.0924 s  (excl. first step)
  Total wall time:   3m 5s
  Impulse FP iters last/mean/max: 6 / 6.589 / 8
  Approx impulse solves/step:     6.590
  Impulse start cache hits/direct: 1999 / 1
  Impulse global drift P/H:       5.524032e-9 / 3.372744e-3
  Impulse per-body max drift P/H: 7.571322e-9 / 1.641176e-2
  CPU cores:         256 available, 8 Rayon worker thread(s)
  Started:           2026-06-24 01:18:35
  Finished:          2026-06-24 01:21:40
  Output file:       /work/e643/e643/shared/multi_ellip/studies/two_body_paper_sweeps/runs/spheroid_1_0p7_0p7/spheroid_1_0p7_0p7_rho10_E4_sep3_run05_impulse_noproj/multiple_body_complete.dat
================================================
