
================ Simulation setup ================
  Run label:         /work/e643/e643/shared/multi_ellip/studies/multibody_convergence_sweep/runs/stress_grid_spheroid_1_0p7_0p7_rho0p1_E0p25_sep3_nd1_dt0p025/
  Started:           2026-06-22 20:20:42
  Input file:        /work/e643/e643/shared/multi_ellip/studies/multibody_convergence_sweep/runs/stress_grid_spheroid_1_0p7_0p7_rho0p1_E0p25_sep3_nd1_dt0p025/input.txt
  Output file:       /work/e643/e643/shared/multi_ellip/studies/multibody_convergence_sweep/runs/stress_grid_spheroid_1_0p7_0p7_rho0p1_E0p25_sep3_nd1_dt0p025/multiple_body_complete.dat
  Bodies:            2
  Fluid density:     1
  Mesh:              ndiv 1 -> 64 triangles / 132 nodes
  Simulated time:    0 -> 10  (dt = 0.025, ~400 steps)
  Output cadence:    every 1 step(s)
  Output rows:       ~401
  Progress cadence:  every 40 step(s)
  CPU cores:         256 available, 16 Rayon worker thread(s)
  Strong coupling:   disabled
  Impulse scheme:    enabled
  Hamiltonian step:  disabled
  Hamiltonian midpt: disabled
  Variational step:  disabled
  Energy projection: disabled
  Projection particular metric: Euclidean
  Fluid KE gradient: disabled  (eps = 0.001, scale = 1, linear = 1, angular = 1)
  Fluid KE discrete gradient: disabled
  Impulse pair metric correction: disabled  (mode = pair discrete-gradient, cutoff = all pairs, inner/outer = 0/0, eps = 0.001, linear scale = 1, angular scale = 0)
  Impulse metric correction: disabled  (internal load constraint = disabled)
  Impulse variational defect probe: disabled
  Impulse quadratic pressure: disabled  (scale = 1)
  Added-mass stab:   disabled
  Exact BEM geometry: disabled
  Exact singular BEM: disabled
  Legacy singular SLP diagnostic: disabled
  Phi-dot blend:     0 (off)

  Solver guidance:
    - Strong coupling: use for stiff close-coupled runs; slower but more implicit.
    - Impulse scheme: use when impulse/momentum conservation or KE drift is the focus. Recommended.
    - Added-mass stab: use for higher mesh counts (ndiv > 3) to preserve stability - deprecated.
================================================
Solver starting - good luck!

Initial state:
  Body  1
    density:          0.100000
    shape axes ratio: (1.000000, 0.700000, 0.700000)
    initial KE ratio: 0.250000
    position:         (-1.500000, 0.000000, 0.000000)
    velocity:         (-0.940665, 1.419311, -7.247092)
    angular velocity: (5.560088, -1.624073, -2.434383)
    orientation:      (w=0.447214, i=0.894427, j=0.000000, k=0.000000)
  Body  2
    density:          0.100000
    shape axes ratio: (1.000000, 0.700000, 0.700000)
    initial KE ratio: 0.250000
    position:         (1.500000, 0.000000, 0.000000)
    velocity:         (-1.096616, 1.654615, -8.448571)
    angular velocity: (0.775317, -4.361582, -4.455772)
    orientation:      (w=0.707107, i=0.000000, j=0.707107, k=0.000000)

Preparing first step: implicit scheme, no bootstrap passes required.
First step may take longer than later steps.

First step completed in 0.030 s.

Step    40/400    10.0% | t 1.000 | ETA 8s | step 0.03s | KE 644.5032 | drift +251.61% | fluid 175.4035 | solid 469.0997
  Impulse FP iterations last/mean/max 19/17.00/19
Step    80/400    20.0% | t 2.000 | ETA 8s | step 0.03s | KE 7463.0421 | drift +3971.44% | fluid 3572.4751 | solid 3890.5669
  Impulse FP iterations last/mean/max 20/19.10/30
Step   120/400    30.0% | t 3.000 | ETA 7s | step 0.03s | KE 7780.2082 | drift +4144.47% | fluid 3710.0721 | solid 4070.1361
  Impulse FP iterations last/mean/max 20/19.71/30
Step   160/400    40.0% | t 4.000 | ETA 6s | step 0.03s | KE 7722.4232 | drift +4112.95% | fluid 3673.2822 | solid 4049.1410
  Impulse FP iterations last/mean/max 21/20.01/30
Step   200/400    50.0% | t 5.000 | ETA 5s | step 0.03s | KE 7496.2074 | drift +3989.53% | fluid 3584.3300 | solid 3911.8775
  Impulse FP iterations last/mean/max 21/20.24/30
Step   240/400    60.0% | t 6.000 | ETA 4s | step 0.03s | KE 7828.3291 | drift +4170.72% | fluid 3661.2589 | solid 4167.0702
  Impulse FP iterations last/mean/max 22/20.28/30
Step   280/400    70.0% | t 7.000 | ETA 3s | step 0.03s | KE 7469.9147 | drift +3975.19% | fluid 3518.0227 | solid 3951.8920
  Impulse FP iterations last/mean/max 20/20.38/30
Step   320/400    80.0% | t 8.000 | ETA 2s | step 0.02s | KE 7774.5905 | drift +4141.41% | fluid 3768.9880 | solid 4005.6025
  Impulse FP iterations last/mean/max 20/20.43/30
Step   360/400    90.0% | t 9.000 | ETA 1s | step 0.03s | KE 7294.5100 | drift +3879.50% | fluid 3483.3679 | solid 3811.1422
  Impulse FP iterations last/mean/max 23/20.50/30
Solver finished successfully - good job!
Results saved successfully.

================== Run summary ==================
  Bodies:            2
  Triangles / nodes: 64 / 132
  Timesteps:         400  (dt = 0.025)
  Simulated time:    0 -> 10
  First-step setup:  0.030 s
  Mean time/step:    0.0277 s  (excl. first step)
  Total wall time:   11.09s
  Impulse FP iters last/mean/max: 19 / 20.560 / 30
  Approx impulse solves/step:     20.562
  Impulse start cache hits/direct: 399 / 1
  Impulse global drift P/H:       1.318962e0 / 7.118460e1
  Impulse per-body max drift P/H: 3.226384e0 / 2.792682e1
  CPU cores:         256 available, 16 Rayon worker thread(s)
  Started:           2026-06-22 20:20:42
  Finished:          2026-06-22 20:20:55
  Output file:       /work/e643/e643/shared/multi_ellip/studies/multibody_convergence_sweep/runs/stress_grid_spheroid_1_0p7_0p7_rho0p1_E0p25_sep3_nd1_dt0p025/multiple_body_complete.dat
================================================
