
================ Simulation setup ================
  Run label:         /work/e643/e643/shared/multi_ellip/studies/two_body_paper_sweeps/runs/spheroid_1_0p7_0p7/spheroid_1_0p7_0p7_rho0p3_E11_sep3_run04_impulse_noproj/
  Started:           2026-06-24 01:52:41
  Input file:        /work/e643/e643/shared/multi_ellip/studies/two_body_paper_sweeps/runs/spheroid_1_0p7_0p7/spheroid_1_0p7_0p7_rho0p3_E11_sep3_run04_impulse_noproj/input.txt
  Output file:       /work/e643/e643/shared/multi_ellip/studies/two_body_paper_sweeps/runs/spheroid_1_0p7_0p7/spheroid_1_0p7_0p7_rho0p3_E11_sep3_run04_impulse_noproj/multiple_body_complete.dat
  Bodies:            2
  Fluid density:     1
  Mesh:              ndiv 2 -> 256 triangles / 516 nodes
  Simulated time:    0 -> 100  (dt = 0.05, ~2000 steps)
  Output cadence:    every 1 step(s)
  Output rows:       ~2001
  Progress cadence:  every 100 step(s)
  CPU cores:         256 available, 8 Rayon worker thread(s)
  Strong coupling:   disabled
  Impulse scheme:    enabled
  Hamiltonian step:  disabled
  Hamiltonian midpt: disabled
  Variational step:  disabled
  Energy projection: disabled
  Projection particular metric: Euclidean
  Fluid KE gradient: disabled  (eps = 0.001, scale = 1, linear = 1, angular = 1)
  Fluid KE discrete gradient: disabled
  Impulse pair metric correction: disabled  (mode = pair discrete-gradient, cutoff = all pairs, inner/outer = 0/0, eps = 0.001, linear scale = 1, angular scale = 0)
  Impulse metric correction: disabled  (internal load constraint = disabled)
  Impulse variational defect probe: disabled
  Impulse quadratic pressure: disabled  (scale = 1)
  Added-mass stab:   disabled
  Exact BEM geometry: disabled
  Exact singular BEM: disabled
  Legacy singular SLP diagnostic: disabled
  Phi-dot blend:     0 (off)

  Solver guidance:
    - Strong coupling: use for stiff close-coupled runs; slower but more implicit.
    - Impulse scheme: use when impulse/momentum conservation or KE drift is the focus. Recommended.
    - Added-mass stab: use for higher mesh counts (ndiv > 3) to preserve stability - deprecated.
================================================
Solver starting - good luck!

Initial state:
  Body  1
    density:          0.300000
    shape axes ratio: (1.000000, 0.700000, 0.700000)
    initial KE ratio: 11.000000
    position:         (-1.500000, 0.000000, 0.000000)
    velocity:         (0.120432, -1.177456, -0.351733)
    angular velocity: (3.625808, 5.016198, 1.081522)
    orientation:      (w=-0.013289, i=0.875045, j=0.369966, k=0.311839)
  Body  2
    density:          0.300000
    shape axes ratio: (1.000000, 0.700000, 0.700000)
    initial KE ratio: 11.000000
    position:         (1.500000, 0.000000, 0.000000)
    velocity:         (0.127944, -1.250901, -0.373672)
    angular velocity: (-0.010889, 3.834395, -4.977521)
    orientation:      (w=-0.387538, i=0.302528, j=-0.768572, k=-0.409374)

Preparing first step: implicit scheme, no bootstrap passes required.
First step may take longer than later steps.

First step completed in 0.282 s.

Step   100/2000    5.0% | t 5.000 | ETA 5m 50s | step 0.17s | KE 22.9260 | drift -17.81% | fluid 6.1961 | solid 16.7298
  Impulse FP iterations last/mean/max 13/13.19/14
Step   200/2000   10.0% | t 10.000 | ETA 5m 36s | step 0.19s | KE 25.6535 | drift -8.03% | fluid 6.9411 | solid 18.7124
  Impulse FP iterations last/mean/max 13/13.11/14
Step   300/2000   15.0% | t 15.000 | ETA 5m 20s | step 0.20s | KE 32.5562 | drift +16.71% | fluid 7.8353 | solid 24.7210
  Impulse FP iterations last/mean/max 13/13.10/14
Step   400/2000   20.0% | t 20.000 | ETA 5m 1s | step 0.18s | KE 34.6070 | drift +24.06% | fluid 8.0228 | solid 26.5842
  Impulse FP iterations last/mean/max 13/13.08/14
Step   500/2000   25.0% | t 25.000 | ETA 4m 41s | step 0.19s | KE 34.6006 | drift +24.04% | fluid 7.9649 | solid 26.6357
  Impulse FP iterations last/mean/max 13/13.02/14
Step   600/2000   30.0% | t 30.000 | ETA 4m 21s | step 0.18s | KE 34.4094 | drift +23.35% | fluid 7.8966 | solid 26.5128
  Impulse FP iterations last/mean/max 12/12.93/14
Step   700/2000   35.0% | t 35.000 | ETA 4m 1s | step 0.20s | KE 34.3584 | drift +23.17% | fluid 7.8559 | solid 26.5025
  Impulse FP iterations last/mean/max 13/12.85/14
Step   800/2000   40.0% | t 40.000 | ETA 3m 41s | step 0.17s | KE 34.5087 | drift +23.71% | fluid 7.8593 | solid 26.6494
  Impulse FP iterations last/mean/max 12/12.78/14
Step   900/2000   45.0% | t 45.000 | ETA 3m 22s | step 0.19s | KE 34.5124 | drift +23.72% | fluid 7.8518 | solid 26.6606
  Impulse FP iterations last/mean/max 13/12.73/14
Step  1000/2000   50.0% | t 50.000 | ETA 3m 2s | step 0.16s | KE 34.5563 | drift +23.88% | fluid 7.8685 | solid 26.6879
  Impulse FP iterations last/mean/max 12/12.68/14
Step  1100/2000   55.0% | t 55.000 | ETA 2m 43s | step 0.16s | KE 34.6700 | drift +24.29% | fluid 7.8796 | solid 26.7903
  Impulse FP iterations last/mean/max 12/12.64/14
Step  1200/2000   60.0% | t 60.000 | ETA 2m 23s | step 0.18s | KE 34.7107 | drift +24.43% | fluid 7.8770 | solid 26.8337
  Impulse FP iterations last/mean/max 13/12.60/14
Step  1300/2000   65.0% | t 65.000 | ETA 2m 5s | step 0.16s | KE 34.8651 | drift +24.99% | fluid 7.9311 | solid 26.9340
  Impulse FP iterations last/mean/max 12/12.56/14
Step  1400/2000   70.0% | t 70.000 | ETA 1m 46s | step 0.17s | KE 34.9317 | drift +25.23% | fluid 7.8991 | solid 27.0326
  Impulse FP iterations last/mean/max 12/12.53/14
Step  1500/2000   75.0% | t 75.000 | ETA 1m 28s | step 0.17s | KE 34.9977 | drift +25.46% | fluid 7.9192 | solid 27.0785
  Impulse FP iterations last/mean/max 12/12.51/14
Step  1600/2000   80.0% | t 80.000 | ETA 1m 10s | step 0.17s | KE 35.0400 | drift +25.61% | fluid 7.9491 | solid 27.0909
  Impulse FP iterations last/mean/max 12/12.48/14
Step  1700/2000   85.0% | t 85.000 | ETA 53s | step 0.16s | KE 35.0499 | drift +25.65% | fluid 7.9320 | solid 27.1180
  Impulse FP iterations last/mean/max 12/12.46/14
Step  1800/2000   90.0% | t 90.000 | ETA 35s | step 0.15s | KE 35.1071 | drift +25.86% | fluid 7.9444 | solid 27.1627
  Impulse FP iterations last/mean/max 12/12.44/14
Step  1900/2000   95.0% | t 95.000 | ETA 17s | step 0.11s | KE 35.0970 | drift +25.82% | fluid 7.9259 | solid 27.1711
  Impulse FP iterations last/mean/max 11/12.41/14
Solver finished successfully - good job!
Results saved successfully.

================== Run summary ==================
  Bodies:            2
  Triangles / nodes: 256 / 516
  Timesteps:         2000  (dt = 0.05)
  Simulated time:    0 -> 100
  First-step setup:  0.282 s
  Mean time/step:    0.1714 s  (excl. first step)
  Total wall time:   5m 42s
  Impulse FP iters last/mean/max: 12 / 12.398 / 14
  Approx impulse solves/step:     12.398
  Impulse start cache hits/direct: 1999 / 1
  Impulse global drift P/H:       2.576558e-8 / 1.702027e-2
  Impulse per-body max drift P/H: 4.890319e-8 / 9.462134e-3
  CPU cores:         256 available, 8 Rayon worker thread(s)
  Started:           2026-06-24 01:52:41
  Finished:          2026-06-24 01:58:24
  Output file:       /work/e643/e643/shared/multi_ellip/studies/two_body_paper_sweeps/runs/spheroid_1_0p7_0p7/spheroid_1_0p7_0p7_rho0p3_E11_sep3_run04_impulse_noproj/multiple_body_complete.dat
================================================
