
================ Simulation setup ================
  Run label:         /work/e643/e643/shared/multi_ellip/studies/departing_sphericity_sweep/runs/triaxial/heterogeneous_aspherical/triaxial_heterogeneous_aspherical_eps1_rho1_E0p5_sep8_run08_impulse_noproj/
  Started:           2026-06-24 03:11:09
  Input file:        /work/e643/e643/shared/multi_ellip/studies/departing_sphericity_sweep/runs/triaxial/heterogeneous_aspherical/triaxial_heterogeneous_aspherical_eps1_rho1_E0p5_sep8_run08_impulse_noproj/input.txt
  Output file:       /work/e643/e643/shared/multi_ellip/studies/departing_sphericity_sweep/runs/triaxial/heterogeneous_aspherical/triaxial_heterogeneous_aspherical_eps1_rho1_E0p5_sep8_run08_impulse_noproj/multiple_body_complete.dat
  Bodies:            2
  Fluid density:     1
  Mesh:              ndiv 2 -> 256 triangles / 516 nodes
  Simulated time:    0 -> 100  (dt = 0.05, ~2000 steps)
  Output cadence:    every 1 step(s)
  Output rows:       ~2001
  Progress cadence:  every 100 step(s)
  CPU cores:         256 available, 8 Rayon worker thread(s)
  Strong coupling:   disabled
  Impulse scheme:    enabled
  Hamiltonian step:  disabled
  Hamiltonian midpt: disabled
  Variational step:  disabled
  Energy projection: disabled
  Projection particular metric: Euclidean
  Fluid KE gradient: disabled  (eps = 0.001, scale = 1, linear = 1, angular = 1)
  Fluid KE discrete gradient: disabled
  Impulse pair metric correction: disabled  (mode = pair discrete-gradient, cutoff = all pairs, inner/outer = 0/0, eps = 0.001, linear scale = 1, angular scale = 0)
  Impulse metric correction: disabled  (internal load constraint = disabled)
  Impulse variational defect probe: disabled
  Impulse quadratic pressure: disabled  (scale = 1)
  Added-mass stab:   disabled
  Exact BEM geometry: disabled
  Exact singular BEM: disabled
  Legacy singular SLP diagnostic: disabled
  Phi-dot blend:     0 (off)

  Solver guidance:
    - Strong coupling: use for stiff close-coupled runs; slower but more implicit.
    - Impulse scheme: use when impulse/momentum conservation or KE drift is the focus. Recommended.
    - Added-mass stab: use for higher mesh counts (ndiv > 3) to preserve stability - deprecated.
================================================
Solver starting - good luck!

Initial state:
  Body  1
    density:          1.000000
    shape axes ratio: (1.000000, 0.500000, 0.250000)
    initial KE ratio: 0.500000
    position:         (-4.000000, 0.000000, 0.000000)
    velocity:         (2.305404, -5.197606, 5.982793)
    angular velocity: (-2.013541, -3.979744, -4.425574)
    orientation:      (w=0.132014, i=-0.646082, j=0.520742, k=0.542197)
  Body  2
    density:          1.000000
    shape axes ratio: (1.000000, 0.500000, 0.250000)
    initial KE ratio: 0.500000
    position:         (4.000000, 0.000000, 0.000000)
    velocity:         (2.101805, -4.738586, 5.454430)
    angular velocity: (3.130841, 5.043481, -2.059018)
    orientation:      (w=-0.120879, i=0.499603, j=0.486983, k=0.706139)

Preparing first step: implicit scheme, no bootstrap passes required.
First step may take longer than later steps.

First step completed in 0.331 s.

Step   100/2000    5.0% | t 5.000 | ETA 5m 54s | step 0.17s | KE 838.8795 | drift +27.96% | fluid 293.7069 | solid 545.1725
  Impulse FP iterations last/mean/max 17/17.49/30
Step   200/2000   10.0% | t 10.000 | ETA 5m 24s | step 0.17s | KE 836.7253 | drift +27.63% | fluid 353.9182 | solid 482.8072
  Impulse FP iterations last/mean/max 17/17.59/30
Step   300/2000   15.0% | t 15.000 | ETA 4m 59s | step 0.17s | KE 831.9689 | drift +26.91% | fluid 365.7552 | solid 466.2137
  Impulse FP iterations last/mean/max 17/17.61/30
Step   400/2000   20.0% | t 20.000 | ETA 4m 36s | step 0.16s | KE 836.3240 | drift +27.57% | fluid 322.6888 | solid 513.6351
  Impulse FP iterations last/mean/max 17/17.48/30
Step   500/2000   25.0% | t 25.000 | ETA 4m 15s | step 0.16s | KE 837.9481 | drift +27.82% | fluid 285.8619 | solid 552.0862
  Impulse FP iterations last/mean/max 17/17.45/30
Step   600/2000   30.0% | t 30.000 | ETA 3m 57s | step 0.16s | KE 827.7170 | drift +26.26% | fluid 299.8613 | solid 527.8557
  Impulse FP iterations last/mean/max 17/17.43/30
Step   700/2000   35.0% | t 35.000 | ETA 3m 38s | step 0.16s | KE 823.3798 | drift +25.60% | fluid 360.3612 | solid 463.0186
  Impulse FP iterations last/mean/max 18/17.40/30
Step   800/2000   40.0% | t 40.000 | ETA 3m 20s | step 0.14s | KE 825.0017 | drift +25.84% | fluid 307.8695 | solid 517.1323
  Impulse FP iterations last/mean/max 16/17.40/30
Step   900/2000   45.0% | t 45.000 | ETA 3m 3s | step 0.15s | KE 838.6166 | drift +27.92% | fluid 326.0116 | solid 512.6051
  Impulse FP iterations last/mean/max 17/17.36/30
Step  1000/2000   50.0% | t 50.000 | ETA 2m 44s | step 0.15s | KE 825.4939 | drift +25.92% | fluid 318.7733 | solid 506.7207
  Impulse FP iterations last/mean/max 18/17.35/30
Step  1100/2000   55.0% | t 55.000 | ETA 2m 27s | step 0.18s | KE 830.5640 | drift +26.69% | fluid 380.0732 | solid 450.4908
  Impulse FP iterations last/mean/max 18/17.34/30
Step  1200/2000   60.0% | t 60.000 | ETA 2m 11s | step 0.16s | KE 827.3939 | drift +26.21% | fluid 287.7971 | solid 539.5968
  Impulse FP iterations last/mean/max 17/17.36/30
Step  1300/2000   65.0% | t 65.000 | ETA 1m 54s | step 0.15s | KE 832.7074 | drift +27.02% | fluid 279.2686 | solid 553.4388
  Impulse FP iterations last/mean/max 16/17.35/30
Step  1400/2000   70.0% | t 70.000 | ETA 1m 38s | step 0.16s | KE 826.7718 | drift +26.11% | fluid 335.4622 | solid 491.3095
  Impulse FP iterations last/mean/max 17/17.37/30
Step  1500/2000   75.0% | t 75.000 | ETA 1m 21s | step 0.14s | KE 832.6230 | drift +27.01% | fluid 292.6873 | solid 539.9358
  Impulse FP iterations last/mean/max 16/17.38/30
Step  1600/2000   80.0% | t 80.000 | ETA 1m 5s | step 0.15s | KE 833.1972 | drift +27.09% | fluid 281.6813 | solid 551.5159
  Impulse FP iterations last/mean/max 17/17.39/30
Step  1700/2000   85.0% | t 85.000 | ETA 48s | step 0.15s | KE 829.1328 | drift +26.47% | fluid 362.1915 | solid 466.9414
  Impulse FP iterations last/mean/max 17/17.38/30
Step  1800/2000   90.0% | t 90.000 | ETA 32s | step 0.15s | KE 830.4400 | drift +26.67% | fluid 319.2461 | solid 511.1939
  Impulse FP iterations last/mean/max 17/17.38/30
Step  1900/2000   95.0% | t 95.000 | ETA 16s | step 0.15s | KE 843.5123 | drift +28.67% | fluid 338.9089 | solid 504.6033
  Impulse FP iterations last/mean/max 17/17.38/30
Solver finished successfully - good job!
Results saved successfully.

================== Run summary ==================
  Bodies:            2
  Triangles / nodes: 256 / 516
  Timesteps:         2000  (dt = 0.05)
  Simulated time:    0 -> 100
  First-step setup:  0.331 s
  Mean time/step:    0.1621 s  (excl. first step)
  Total wall time:   5m 24s
  Impulse FP iters last/mean/max: 18 / 17.381 / 30
  Approx impulse solves/step:     17.381
  Impulse start cache hits/direct: 1999 / 1
  Impulse global drift P/H:       9.449212e-4 / 1.535668e-1
  Impulse per-body max drift P/H: 1.520495e-3 / 9.286786e-2
  CPU cores:         256 available, 8 Rayon worker thread(s)
  Started:           2026-06-24 03:11:09
  Finished:          2026-06-24 03:16:34
  Output file:       /work/e643/e643/shared/multi_ellip/studies/departing_sphericity_sweep/runs/triaxial/heterogeneous_aspherical/triaxial_heterogeneous_aspherical_eps1_rho1_E0p5_sep8_run08_impulse_noproj/multiple_body_complete.dat
================================================
