
================ Simulation setup ================
  Run label:         /work/e643/e643/shared/multi_ellip/studies/two_body_paper_sweeps/runs/ellipsoid_1_0p8_0p6/ellipsoid_1_0p8_0p6_rho0p03_E30_sep3_run05_impulse_noproj/
  Started:           2026-06-24 02:49:22
  Input file:        /work/e643/e643/shared/multi_ellip/studies/two_body_paper_sweeps/runs/ellipsoid_1_0p8_0p6/ellipsoid_1_0p8_0p6_rho0p03_E30_sep3_run05_impulse_noproj/input.txt
  Output file:       /work/e643/e643/shared/multi_ellip/studies/two_body_paper_sweeps/runs/ellipsoid_1_0p8_0p6/ellipsoid_1_0p8_0p6_rho0p03_E30_sep3_run05_impulse_noproj/multiple_body_complete.dat
  Bodies:            2
  Fluid density:     1
  Mesh:              ndiv 2 -> 256 triangles / 516 nodes
  Simulated time:    0 -> 100  (dt = 0.05, ~2000 steps)
  Output cadence:    every 1 step(s)
  Output rows:       ~2001
  Progress cadence:  every 100 step(s)
  CPU cores:         256 available, 8 Rayon worker thread(s)
  Strong coupling:   disabled
  Impulse scheme:    enabled
  Hamiltonian step:  disabled
  Hamiltonian midpt: disabled
  Variational step:  disabled
  Energy projection: disabled
  Projection particular metric: Euclidean
  Fluid KE gradient: disabled  (eps = 0.001, scale = 1, linear = 1, angular = 1)
  Fluid KE discrete gradient: disabled
  Impulse pair metric correction: disabled  (mode = pair discrete-gradient, cutoff = all pairs, inner/outer = 0/0, eps = 0.001, linear scale = 1, angular scale = 0)
  Impulse metric correction: disabled  (internal load constraint = disabled)
  Impulse variational defect probe: disabled
  Impulse quadratic pressure: disabled  (scale = 1)
  Added-mass stab:   disabled
  Exact BEM geometry: disabled
  Exact singular BEM: disabled
  Legacy singular SLP diagnostic: disabled
  Phi-dot blend:     0 (off)

  Solver guidance:
    - Strong coupling: use for stiff close-coupled runs; slower but more implicit.
    - Impulse scheme: use when impulse/momentum conservation or KE drift is the focus. Recommended.
    - Added-mass stab: use for higher mesh counts (ndiv > 3) to preserve stability - deprecated.
================================================
Solver starting - good luck!

Initial state:
  Body  1
    density:          0.030000
    shape axes ratio: (1.000000, 0.800000, 0.600000)
    initial KE ratio: 30.000000
    position:         (-1.500000, 0.000000, 0.000000)
    velocity:         (0.144829, -0.252007, 0.776710)
    angular velocity: (-0.783798, 1.988223, -5.908557)
    orientation:      (w=-0.098539, i=0.671332, j=-0.422516, k=-0.600902)
  Body  2
    density:          0.030000
    shape axes ratio: (1.000000, 0.800000, 0.600000)
    initial KE ratio: 30.000000
    position:         (1.500000, 0.000000, 0.000000)
    velocity:         (0.137134, -0.238617, 0.735441)
    angular velocity: (-3.115754, 2.555878, 4.820579)
    orientation:      (w=0.501029, i=-0.486603, j=0.445296, k=0.560266)

Preparing first step: implicit scheme, no bootstrap passes required.
First step may take longer than later steps.

First step completed in 0.627 s.

Step   100/2000    5.0% | t 5.000 | ETA 13m 52s | step 0.44s | KE 11.9349 | drift +35.58% | fluid 8.4743 | solid 3.4606
  Impulse FP iterations last/mean/max 30/30.00/30
Step   200/2000   10.0% | t 10.000 | ETA 12m 58s | step 0.40s | KE 10.7043 | drift +21.60% | fluid 7.3202 | solid 3.3842
  Impulse FP iterations last/mean/max 30/29.98/30
Step   300/2000   15.0% | t 15.000 | ETA 12m 4s | step 0.40s | KE 10.4795 | drift +19.05% | fluid 6.3704 | solid 4.1091
  Impulse FP iterations last/mean/max 30/29.89/30
Step   400/2000   20.0% | t 20.000 | ETA 11m 16s | step 0.40s | KE 10.4065 | drift +18.22% | fluid 7.0023 | solid 3.4042
  Impulse FP iterations last/mean/max 30/29.88/30
Step   500/2000   25.0% | t 25.000 | ETA 10m 30s | step 0.43s | KE 10.3896 | drift +18.03% | fluid 7.6250 | solid 2.7646
  Impulse FP iterations last/mean/max 30/29.88/30
Step   600/2000   30.0% | t 30.000 | ETA 9m 34s | step 0.37s | KE 10.3967 | drift +18.11% | fluid 7.1609 | solid 3.2358
  Impulse FP iterations last/mean/max 30/29.86/30
Step   700/2000   35.0% | t 35.000 | ETA 8m 46s | step 0.36s | KE 10.3880 | drift +18.01% | fluid 7.1705 | solid 3.2176
  Impulse FP iterations last/mean/max 30/29.85/30
Step   800/2000   40.0% | t 40.000 | ETA 8m 3s | step 0.43s | KE 10.3813 | drift +17.93% | fluid 6.6336 | solid 3.7477
  Impulse FP iterations last/mean/max 30/29.86/30
Step   900/2000   45.0% | t 45.000 | ETA 7m 23s | step 0.39s | KE 10.4246 | drift +18.42% | fluid 6.8472 | solid 3.5774
  Impulse FP iterations last/mean/max 30/29.86/30
Step  1000/2000   50.0% | t 50.000 | ETA 6m 44s | step 0.41s | KE 10.3924 | drift +18.06% | fluid 7.7956 | solid 2.5967
  Impulse FP iterations last/mean/max 30/29.86/30
Step  1100/2000   55.0% | t 55.000 | ETA 6m 4s | step 0.42s | KE 10.3706 | drift +17.81% | fluid 7.5320 | solid 2.8386
  Impulse FP iterations last/mean/max 30/29.86/30
Step  1200/2000   60.0% | t 60.000 | ETA 5m 24s | step 0.41s | KE 10.3756 | drift +17.87% | fluid 7.1493 | solid 3.2263
  Impulse FP iterations last/mean/max 30/29.85/30
Step  1300/2000   65.0% | t 65.000 | ETA 4m 43s | step 0.40s | KE 10.3810 | drift +17.93% | fluid 7.0758 | solid 3.3052
  Impulse FP iterations last/mean/max 30/29.85/30
Step  1400/2000   70.0% | t 70.000 | ETA 4m 3s | step 0.39s | KE 10.3997 | drift +18.14% | fluid 6.8175 | solid 3.5822
  Impulse FP iterations last/mean/max 30/29.84/30
Step  1500/2000   75.0% | t 75.000 | ETA 3m 23s | step 0.42s | KE 10.3874 | drift +18.00% | fluid 6.7243 | solid 3.6632
  Impulse FP iterations last/mean/max 30/29.85/30
Step  1600/2000   80.0% | t 80.000 | ETA 2m 42s | step 0.39s | KE 10.3679 | drift +17.78% | fluid 7.1955 | solid 3.1724
  Impulse FP iterations last/mean/max 30/29.83/30
Step  1700/2000   85.0% | t 85.000 | ETA 2m 2s | step 0.35s | KE 10.3730 | drift +17.84% | fluid 6.6718 | solid 3.7013
  Impulse FP iterations last/mean/max 26/29.82/30
Step  1800/2000   90.0% | t 90.000 | ETA 1m 21s | step 0.41s | KE 10.4484 | drift +18.70% | fluid 7.8322 | solid 2.6162
  Impulse FP iterations last/mean/max 30/29.82/30
Step  1900/2000   95.0% | t 95.000 | ETA 40s | step 0.41s | KE 10.4599 | drift +18.83% | fluid 7.8531 | solid 2.6069
  Impulse FP iterations last/mean/max 30/29.82/30
Solver finished successfully - good job!
Results saved successfully.

================== Run summary ==================
  Bodies:            2
  Triangles / nodes: 256 / 516
  Timesteps:         2000  (dt = 0.05)
  Simulated time:    0 -> 100
  First-step setup:  0.627 s
  Mean time/step:    0.4053 s  (excl. first step)
  Total wall time:   13m 30s
  Impulse FP iters last/mean/max: 30 / 29.825 / 30
  Approx impulse solves/step:     29.825
  Impulse start cache hits/direct: 1999 / 1
  Impulse global drift P/H:       8.058802e-2 / 2.117180e-1
  Impulse per-body max drift P/H: 5.138858e-1 / 1.261386e0
  CPU cores:         256 available, 8 Rayon worker thread(s)
  Started:           2026-06-24 02:49:22
  Finished:          2026-06-24 03:02:53
  Output file:       /work/e643/e643/shared/multi_ellip/studies/two_body_paper_sweeps/runs/ellipsoid_1_0p8_0p6/ellipsoid_1_0p8_0p6_rho0p03_E30_sep3_run05_impulse_noproj/multiple_body_complete.dat
================================================
