
================ Simulation setup ================
  Run label:         /work/e643/e643/shared/multi_ellip/studies/two_body_paper_sweeps/runs/spheroid_1_0p7_0p7/spheroid_1_0p7_0p7_rho4_E1p5_sep8_run03_impulse_noproj/
  Started:           2026-06-24 01:25:46
  Input file:        /work/e643/e643/shared/multi_ellip/studies/two_body_paper_sweeps/runs/spheroid_1_0p7_0p7/spheroid_1_0p7_0p7_rho4_E1p5_sep8_run03_impulse_noproj/input.txt
  Output file:       /work/e643/e643/shared/multi_ellip/studies/two_body_paper_sweeps/runs/spheroid_1_0p7_0p7/spheroid_1_0p7_0p7_rho4_E1p5_sep8_run03_impulse_noproj/multiple_body_complete.dat
  Bodies:            2
  Fluid density:     1
  Mesh:              ndiv 2 -> 256 triangles / 516 nodes
  Simulated time:    0 -> 100  (dt = 0.05, ~2000 steps)
  Output cadence:    every 1 step(s)
  Output rows:       ~2001
  Progress cadence:  every 100 step(s)
  CPU cores:         256 available, 8 Rayon worker thread(s)
  Strong coupling:   disabled
  Impulse scheme:    enabled
  Hamiltonian step:  disabled
  Hamiltonian midpt: disabled
  Variational step:  disabled
  Energy projection: disabled
  Projection particular metric: Euclidean
  Fluid KE gradient: disabled  (eps = 0.001, scale = 1, linear = 1, angular = 1)
  Fluid KE discrete gradient: disabled
  Impulse pair metric correction: disabled  (mode = pair discrete-gradient, cutoff = all pairs, inner/outer = 0/0, eps = 0.001, linear scale = 1, angular scale = 0)
  Impulse metric correction: disabled  (internal load constraint = disabled)
  Impulse variational defect probe: disabled
  Impulse quadratic pressure: disabled  (scale = 1)
  Added-mass stab:   disabled
  Exact BEM geometry: disabled
  Exact singular BEM: disabled
  Legacy singular SLP diagnostic: disabled
  Phi-dot blend:     0 (off)

  Solver guidance:
    - Strong coupling: use for stiff close-coupled runs; slower but more implicit.
    - Impulse scheme: use when impulse/momentum conservation or KE drift is the focus. Recommended.
    - Added-mass stab: use for higher mesh counts (ndiv > 3) to preserve stability - deprecated.
================================================
Solver starting - good luck!

Initial state:
  Body  1
    density:          4.000000
    shape axes ratio: (1.000000, 0.700000, 0.700000)
    initial KE ratio: 1.500000
    position:         (-4.000000, 0.000000, 0.000000)
    velocity:         (-2.305382, -1.942176, -0.294623)
    angular velocity: (5.611606, 0.777574, 2.717291)
    orientation:      (w=0.239337, i=0.446336, j=-0.784424, k=0.358023)
  Body  2
    density:          4.000000
    shape axes ratio: (1.000000, 0.700000, 0.700000)
    initial KE ratio: 1.500000
    position:         (4.000000, 0.000000, 0.000000)
    velocity:         (-2.586568, -2.179062, -0.330558)
    angular velocity: (3.128709, 4.634164, -2.866029)
    orientation:      (w=-0.250856, i=-0.464948, j=0.701528, k=-0.478281)

Preparing first step: implicit scheme, no bootstrap passes required.
First step may take longer than later steps.

First step completed in 0.246 s.

Step   100/2000    5.0% | t 5.000 | ETA 2m 58s | step 0.10s | KE 472.8277 | drift -0.23% | fluid 26.6379 | solid 446.1898
  Impulse FP iterations last/mean/max 7/7.39/8
Step   200/2000   10.0% | t 10.000 | ETA 3m 3s | step 0.12s | KE 469.3360 | drift -0.97% | fluid 27.0946 | solid 442.2415
  Impulse FP iterations last/mean/max 8/7.54/8
Step   300/2000   15.0% | t 15.000 | ETA 2m 58s | step 0.11s | KE 468.7095 | drift -1.10% | fluid 30.0087 | solid 438.7008
  Impulse FP iterations last/mean/max 8/7.59/8
Step   400/2000   20.0% | t 20.000 | ETA 2m 49s | step 0.10s | KE 472.3011 | drift -0.34% | fluid 25.9938 | solid 446.3073
  Impulse FP iterations last/mean/max 7/7.59/8
Step   500/2000   25.0% | t 25.000 | ETA 2m 38s | step 0.10s | KE 474.7816 | drift +0.18% | fluid 29.7284 | solid 445.0532
  Impulse FP iterations last/mean/max 7/7.53/8
Step   600/2000   30.0% | t 30.000 | ETA 2m 27s | step 0.10s | KE 475.2623 | drift +0.29% | fluid 25.3935 | solid 449.8687
  Impulse FP iterations last/mean/max 7/7.48/8
Step   700/2000   35.0% | t 35.000 | ETA 2m 16s | step 0.10s | KE 474.8164 | drift +0.19% | fluid 28.8077 | solid 446.0087
  Impulse FP iterations last/mean/max 7/7.44/8
Step   800/2000   40.0% | t 40.000 | ETA 2m 4s | step 0.09s | KE 474.2334 | drift +0.07% | fluid 27.1240 | solid 447.1095
  Impulse FP iterations last/mean/max 7/7.41/8
Step   900/2000   45.0% | t 45.000 | ETA 1m 52s | step 0.10s | KE 473.7471 | drift -0.03% | fluid 29.1514 | solid 444.5956
  Impulse FP iterations last/mean/max 8/7.38/8
Step  1000/2000   50.0% | t 50.000 | ETA 1m 40s | step 0.09s | KE 473.5182 | drift -0.08% | fluid 28.1510 | solid 445.3672
  Impulse FP iterations last/mean/max 7/7.36/8
Step  1100/2000   55.0% | t 55.000 | ETA 1m 30s | step 0.10s | KE 473.4596 | drift -0.10% | fluid 27.1098 | solid 446.3498
  Impulse FP iterations last/mean/max 7/7.34/8
Step  1200/2000   60.0% | t 60.000 | ETA 1m 20s | step 0.09s | KE 473.4815 | drift -0.09% | fluid 26.8650 | solid 446.6165
  Impulse FP iterations last/mean/max 7/7.33/8
Step  1300/2000   65.0% | t 65.000 | ETA 1m 10s | step 0.10s | KE 473.5249 | drift -0.08% | fluid 25.5847 | solid 447.9403
  Impulse FP iterations last/mean/max 7/7.31/8
Step  1400/2000   70.0% | t 70.000 | ETA 1m 0s | step 0.10s | KE 473.5082 | drift -0.08% | fluid 28.6182 | solid 444.8901
  Impulse FP iterations last/mean/max 7/7.30/8
Step  1500/2000   75.0% | t 75.000 | ETA 50s | step 0.10s | KE 473.5317 | drift -0.08% | fluid 26.7847 | solid 446.7471
  Impulse FP iterations last/mean/max 7/7.30/8
Step  1600/2000   80.0% | t 80.000 | ETA 40s | step 0.10s | KE 473.5281 | drift -0.08% | fluid 30.1287 | solid 443.3994
  Impulse FP iterations last/mean/max 7/7.29/8
Step  1700/2000   85.0% | t 85.000 | ETA 30s | step 0.10s | KE 473.6059 | drift -0.06% | fluid 25.5014 | solid 448.1045
  Impulse FP iterations last/mean/max 7/7.28/8
Step  1800/2000   90.0% | t 90.000 | ETA 20s | step 0.10s | KE 473.5941 | drift -0.07% | fluid 29.3537 | solid 444.2404
  Impulse FP iterations last/mean/max 7/7.28/8
Step  1900/2000   95.0% | t 95.000 | ETA 10s | step 0.10s | KE 473.6191 | drift -0.06% | fluid 24.8061 | solid 448.8130
  Impulse FP iterations last/mean/max 7/7.27/8
Solver finished successfully - good job!
Results saved successfully.

================== Run summary ==================
  Bodies:            2
  Triangles / nodes: 256 / 516
  Timesteps:         2000  (dt = 0.05)
  Simulated time:    0 -> 100
  First-step setup:  0.246 s
  Mean time/step:    0.1012 s  (excl. first step)
  Total wall time:   3m 22s
  Impulse FP iters last/mean/max: 8 / 7.266 / 8
  Approx impulse solves/step:     7.267
  Impulse start cache hits/direct: 1999 / 1
  Impulse global drift P/H:       2.449933e-9 / 1.322664e-2
  Impulse per-body max drift P/H: 4.504436e-9 / 4.399615e-3
  CPU cores:         256 available, 8 Rayon worker thread(s)
  Started:           2026-06-24 01:25:46
  Finished:          2026-06-24 01:29:09
  Output file:       /work/e643/e643/shared/multi_ellip/studies/two_body_paper_sweeps/runs/spheroid_1_0p7_0p7/spheroid_1_0p7_0p7_rho4_E1p5_sep8_run03_impulse_noproj/multiple_body_complete.dat
================================================
