
================ Simulation setup ================
  Run label:         /work/e643/e643/shared/multi_ellip/studies/two_body_paper_sweeps/runs/spheroid_1_0p7_0p7/spheroid_1_0p7_0p7_rho1_E0p2_sep5_run04_impulse_noproj/
  Started:           2026-06-24 01:29:35
  Input file:        /work/e643/e643/shared/multi_ellip/studies/two_body_paper_sweeps/runs/spheroid_1_0p7_0p7/spheroid_1_0p7_0p7_rho1_E0p2_sep5_run04_impulse_noproj/input.txt
  Output file:       /work/e643/e643/shared/multi_ellip/studies/two_body_paper_sweeps/runs/spheroid_1_0p7_0p7/spheroid_1_0p7_0p7_rho1_E0p2_sep5_run04_impulse_noproj/multiple_body_complete.dat
  Bodies:            2
  Fluid density:     1
  Mesh:              ndiv 2 -> 256 triangles / 516 nodes
  Simulated time:    0 -> 100  (dt = 0.05, ~2000 steps)
  Output cadence:    every 1 step(s)
  Output rows:       ~2001
  Progress cadence:  every 100 step(s)
  CPU cores:         256 available, 8 Rayon worker thread(s)
  Strong coupling:   disabled
  Impulse scheme:    enabled
  Hamiltonian step:  disabled
  Hamiltonian midpt: disabled
  Variational step:  disabled
  Energy projection: disabled
  Projection particular metric: Euclidean
  Fluid KE gradient: disabled  (eps = 0.001, scale = 1, linear = 1, angular = 1)
  Fluid KE discrete gradient: disabled
  Impulse pair metric correction: disabled  (mode = pair discrete-gradient, cutoff = all pairs, inner/outer = 0/0, eps = 0.001, linear scale = 1, angular scale = 0)
  Impulse metric correction: disabled  (internal load constraint = disabled)
  Impulse variational defect probe: disabled
  Impulse quadratic pressure: disabled  (scale = 1)
  Added-mass stab:   disabled
  Exact BEM geometry: disabled
  Exact singular BEM: disabled
  Legacy singular SLP diagnostic: disabled
  Phi-dot blend:     0 (off)

  Solver guidance:
    - Strong coupling: use for stiff close-coupled runs; slower but more implicit.
    - Impulse scheme: use when impulse/momentum conservation or KE drift is the focus. Recommended.
    - Added-mass stab: use for higher mesh counts (ndiv > 3) to preserve stability - deprecated.
================================================
Solver starting - good luck!

Initial state:
  Body  1
    density:          1.000000
    shape axes ratio: (1.000000, 0.700000, 0.700000)
    initial KE ratio: 0.200000
    position:         (-2.500000, 0.000000, 0.000000)
    velocity:         (-1.886963, 8.295682, 4.556276)
    angular velocity: (1.353375, -3.710056, 4.886950)
    orientation:      (w=0.935352, i=0.133874, j=-0.133377, k=-0.299008)
  Body  2
    density:          1.000000
    shape axes ratio: (1.000000, 0.700000, 0.700000)
    initial KE ratio: 0.200000
    position:         (2.500000, 0.000000, 0.000000)
    velocity:         (-1.850139, 8.133790, 4.467360)
    angular velocity: (2.493719, -5.067767, -2.752730)
    orientation:      (w=0.887990, i=0.224779, j=0.383766, k=-0.116926)

Preparing first step: implicit scheme, no bootstrap passes required.
First step may take longer than later steps.

First step completed in 0.312 s.

Step   100/2000    5.0% | t 5.000 | ETA 4m 50s | step 0.17s | KE 740.1791 | drift +9.50% | fluid 227.2820 | solid 512.8971
  Impulse FP iterations last/mean/max 11/10.68/11
Step   200/2000   10.0% | t 10.000 | ETA 4m 33s | step 0.16s | KE 764.8550 | drift +13.15% | fluid 229.3067 | solid 535.5484
  Impulse FP iterations last/mean/max 11/10.61/11
Step   300/2000   15.0% | t 15.000 | ETA 4m 16s | step 0.15s | KE 771.4592 | drift +14.13% | fluid 224.1244 | solid 547.3348
  Impulse FP iterations last/mean/max 10/10.58/11
Step   400/2000   20.0% | t 20.000 | ETA 4m 0s | step 0.15s | KE 770.2244 | drift +13.95% | fluid 233.3898 | solid 536.8346
  Impulse FP iterations last/mean/max 11/10.56/11
Step   500/2000   25.0% | t 25.000 | ETA 3m 45s | step 0.15s | KE 774.8622 | drift +14.63% | fluid 226.3422 | solid 548.5199
  Impulse FP iterations last/mean/max 11/10.55/11
Step   600/2000   30.0% | t 30.000 | ETA 3m 30s | step 0.15s | KE 774.0525 | drift +14.51% | fluid 233.1330 | solid 540.9195
  Impulse FP iterations last/mean/max 10/10.54/11
Step   700/2000   35.0% | t 35.000 | ETA 3m 14s | step 0.17s | KE 773.3307 | drift +14.41% | fluid 233.8748 | solid 539.4560
  Impulse FP iterations last/mean/max 11/10.53/11
Step   800/2000   40.0% | t 40.000 | ETA 2m 59s | step 0.13s | KE 776.2313 | drift +14.84% | fluid 219.9551 | solid 556.2762
  Impulse FP iterations last/mean/max 10/10.52/11
Step   900/2000   45.0% | t 45.000 | ETA 2m 44s | step 0.14s | KE 773.2316 | drift +14.39% | fluid 237.2999 | solid 535.9317
  Impulse FP iterations last/mean/max 10/10.52/11
Step  1000/2000   50.0% | t 50.000 | ETA 2m 29s | step 0.17s | KE 775.2946 | drift +14.70% | fluid 231.9224 | solid 543.3721
  Impulse FP iterations last/mean/max 11/10.52/11
Step  1100/2000   55.0% | t 55.000 | ETA 2m 14s | step 0.16s | KE 776.5206 | drift +14.88% | fluid 224.4513 | solid 552.0693
  Impulse FP iterations last/mean/max 11/10.51/11
Step  1200/2000   60.0% | t 60.000 | ETA 1m 59s | step 0.15s | KE 773.1474 | drift +14.38% | fluid 232.5593 | solid 540.5881
  Impulse FP iterations last/mean/max 11/10.51/11
Step  1300/2000   65.0% | t 65.000 | ETA 1m 44s | step 0.15s | KE 775.1417 | drift +14.67% | fluid 231.7185 | solid 543.4232
  Impulse FP iterations last/mean/max 11/10.51/11
Step  1400/2000   70.0% | t 70.000 | ETA 1m 29s | step 0.14s | KE 777.2995 | drift +14.99% | fluid 225.6245 | solid 551.6749
  Impulse FP iterations last/mean/max 10/10.51/11
Step  1500/2000   75.0% | t 75.000 | ETA 1m 14s | step 0.12s | KE 773.3652 | drift +14.41% | fluid 237.0264 | solid 536.3388
  Impulse FP iterations last/mean/max 10/10.51/11
Step  1600/2000   80.0% | t 80.000 | ETA 58s | step 0.09s | KE 774.9953 | drift +14.65% | fluid 226.6577 | solid 548.3377
  Impulse FP iterations last/mean/max 10/10.50/11
Step  1700/2000   85.0% | t 85.000 | ETA 42s | step 0.10s | KE 776.9055 | drift +14.94% | fluid 225.0971 | solid 551.8084
  Impulse FP iterations last/mean/max 11/10.50/11
Step  1800/2000   90.0% | t 90.000 | ETA 28s | step 0.10s | KE 774.2260 | drift +14.54% | fluid 236.9644 | solid 537.2616
  Impulse FP iterations last/mean/max 10/10.50/11
Step  1900/2000   95.0% | t 95.000 | ETA 13s | step 0.11s | KE 774.8391 | drift +14.63% | fluid 232.5888 | solid 542.2503
  Impulse FP iterations last/mean/max 11/10.50/11
Solver finished successfully - good job!
Results saved successfully.

================== Run summary ==================
  Bodies:            2
  Triangles / nodes: 256 / 516
  Timesteps:         2000  (dt = 0.05)
  Simulated time:    0 -> 100
  First-step setup:  0.312 s
  Mean time/step:    0.1367 s  (excl. first step)
  Total wall time:   4m 33s
  Impulse FP iters last/mean/max: 10 / 10.502 / 11
  Approx impulse solves/step:     10.502
  Impulse start cache hits/direct: 1999 / 1
  Impulse global drift P/H:       2.114757e-8 / 1.020282e-1
  Impulse per-body max drift P/H: 3.085960e-8 / 9.310778e-3
  CPU cores:         256 available, 8 Rayon worker thread(s)
  Started:           2026-06-24 01:29:35
  Finished:          2026-06-24 01:34:09
  Output file:       /work/e643/e643/shared/multi_ellip/studies/two_body_paper_sweeps/runs/spheroid_1_0p7_0p7/spheroid_1_0p7_0p7_rho1_E0p2_sep5_run04_impulse_noproj/multiple_body_complete.dat
================================================
