
================ Simulation setup ================
  Run label:         /work/e643/e643/shared/multi_ellip/studies/two_body_paper_sweeps/runs/ellipsoid_1_0p8_0p6/ellipsoid_1_0p8_0p6_rho0p1_E4_sep11_run05_impulse_noproj/
  Started:           2026-06-24 02:14:39
  Input file:        /work/e643/e643/shared/multi_ellip/studies/two_body_paper_sweeps/runs/ellipsoid_1_0p8_0p6/ellipsoid_1_0p8_0p6_rho0p1_E4_sep11_run05_impulse_noproj/input.txt
  Output file:       /work/e643/e643/shared/multi_ellip/studies/two_body_paper_sweeps/runs/ellipsoid_1_0p8_0p6/ellipsoid_1_0p8_0p6_rho0p1_E4_sep11_run05_impulse_noproj/multiple_body_complete.dat
  Bodies:            2
  Fluid density:     1
  Mesh:              ndiv 2 -> 256 triangles / 516 nodes
  Simulated time:    0 -> 100  (dt = 0.05, ~2000 steps)
  Output cadence:    every 1 step(s)
  Output rows:       ~2001
  Progress cadence:  every 100 step(s)
  CPU cores:         256 available, 8 Rayon worker thread(s)
  Strong coupling:   disabled
  Impulse scheme:    enabled
  Hamiltonian step:  disabled
  Hamiltonian midpt: disabled
  Variational step:  disabled
  Energy projection: disabled
  Projection particular metric: Euclidean
  Fluid KE gradient: disabled  (eps = 0.001, scale = 1, linear = 1, angular = 1)
  Fluid KE discrete gradient: disabled
  Impulse pair metric correction: disabled  (mode = pair discrete-gradient, cutoff = all pairs, inner/outer = 0/0, eps = 0.001, linear scale = 1, angular scale = 0)
  Impulse metric correction: disabled  (internal load constraint = disabled)
  Impulse variational defect probe: disabled
  Impulse quadratic pressure: disabled  (scale = 1)
  Added-mass stab:   disabled
  Exact BEM geometry: disabled
  Exact singular BEM: disabled
  Legacy singular SLP diagnostic: disabled
  Phi-dot blend:     0 (off)

  Solver guidance:
    - Strong coupling: use for stiff close-coupled runs; slower but more implicit.
    - Impulse scheme: use when impulse/momentum conservation or KE drift is the focus. Recommended.
    - Added-mass stab: use for higher mesh counts (ndiv > 3) to preserve stability - deprecated.
================================================
Solver starting - good luck!

Initial state:
  Body  1
    density:          0.100000
    shape axes ratio: (1.000000, 0.800000, 0.600000)
    initial KE ratio: 4.000000
    position:         (-5.500000, 0.000000, 0.000000)
    velocity:         (0.772759, -1.304566, 1.443932)
    angular velocity: (0.848995, -6.132875, -1.070268)
    orientation:      (w=0.283428, i=0.880658, j=0.009807, k=-0.379491)
  Body  2
    density:          0.100000
    shape axes ratio: (1.000000, 0.800000, 0.600000)
    initial KE ratio: 4.000000
    position:         (5.500000, 0.000000, 0.000000)
    velocity:         (0.765325, -1.292016, 1.430041)
    angular velocity: (3.027996, 4.688130, -2.886364)
    orientation:      (w=-0.108250, i=0.664533, j=-0.705112, k=0.222475)

Preparing first step: implicit scheme, no bootstrap passes required.
First step may take longer than later steps.

First step completed in 0.440 s.

Step   100/2000    5.0% | t 5.000 | ETA 8m 22s | step 0.25s | KE 24.9625 | drift +2.38% | fluid 15.5552 | solid 9.4073
  Impulse FP iterations last/mean/max 17/18.59/21
Step   200/2000   10.0% | t 10.000 | ETA 7m 57s | step 0.27s | KE 25.2723 | drift +3.65% | fluid 15.6618 | solid 9.6105
  Impulse FP iterations last/mean/max 19/18.49/21
Step   300/2000   15.0% | t 15.000 | ETA 7m 35s | step 0.24s | KE 25.0923 | drift +2.91% | fluid 14.6260 | solid 10.4663
  Impulse FP iterations last/mean/max 16/18.59/21
Step   400/2000   20.0% | t 20.000 | ETA 7m 9s | step 0.24s | KE 25.1761 | drift +3.26% | fluid 13.4570 | solid 11.7191
  Impulse FP iterations last/mean/max 16/18.61/22
Step   500/2000   25.0% | t 25.000 | ETA 6m 45s | step 0.26s | KE 26.3734 | drift +8.17% | fluid 15.4500 | solid 10.9234
  Impulse FP iterations last/mean/max 18/18.73/22
Step   600/2000   30.0% | t 30.000 | ETA 6m 18s | step 0.30s | KE 26.5757 | drift +9.00% | fluid 15.8655 | solid 10.7102
  Impulse FP iterations last/mean/max 20/18.72/22
Step   700/2000   35.0% | t 35.000 | ETA 5m 51s | step 0.27s | KE 26.3715 | drift +8.16% | fluid 14.5311 | solid 11.8404
  Impulse FP iterations last/mean/max 18/18.76/22
Step   800/2000   40.0% | t 40.000 | ETA 5m 24s | step 0.26s | KE 26.4250 | drift +8.38% | fluid 14.5801 | solid 11.8449
  Impulse FP iterations last/mean/max 19/18.75/22
Step   900/2000   45.0% | t 45.000 | ETA 4m 57s | step 0.27s | KE 26.4976 | drift +8.68% | fluid 15.6486 | solid 10.8490
  Impulse FP iterations last/mean/max 19/18.78/22
Step  1000/2000   50.0% | t 50.000 | ETA 4m 29s | step 0.26s | KE 26.3525 | drift +8.08% | fluid 14.3981 | solid 11.9544
  Impulse FP iterations last/mean/max 18/18.74/22
Step  1100/2000   55.0% | t 55.000 | ETA 4m 1s | step 0.25s | KE 26.3981 | drift +8.27% | fluid 14.3630 | solid 12.0351
  Impulse FP iterations last/mean/max 19/18.70/22
Step  1200/2000   60.0% | t 60.000 | ETA 3m 33s | step 0.26s | KE 26.4332 | drift +8.41% | fluid 15.0488 | solid 11.3844
  Impulse FP iterations last/mean/max 19/18.71/22
Step  1300/2000   65.0% | t 65.000 | ETA 3m 7s | step 0.26s | KE 26.4803 | drift +8.61% | fluid 13.6818 | solid 12.7985
  Impulse FP iterations last/mean/max 18/18.73/22
Step  1400/2000   70.0% | t 70.000 | ETA 2m 40s | step 0.29s | KE 26.3894 | drift +8.23% | fluid 14.3684 | solid 12.0210
  Impulse FP iterations last/mean/max 20/18.71/22
Step  1500/2000   75.0% | t 75.000 | ETA 2m 13s | step 0.29s | KE 26.4520 | drift +8.49% | fluid 16.4981 | solid 9.9539
  Impulse FP iterations last/mean/max 20/18.73/22
Step  1600/2000   80.0% | t 80.000 | ETA 1m 47s | step 0.29s | KE 26.5210 | drift +8.77% | fluid 16.3525 | solid 10.1685
  Impulse FP iterations last/mean/max 21/18.73/22
Step  1700/2000   85.0% | t 85.000 | ETA 1m 20s | step 0.29s | KE 26.4311 | drift +8.40% | fluid 14.8135 | solid 11.6176
  Impulse FP iterations last/mean/max 20/18.71/22
Step  1800/2000   90.0% | t 90.000 | ETA 53s | step 0.28s | KE 26.4808 | drift +8.61% | fluid 14.6147 | solid 11.8661
  Impulse FP iterations last/mean/max 19/18.71/22
Step  1900/2000   95.0% | t 95.000 | ETA 26s | step 0.26s | KE 26.4445 | drift +8.46% | fluid 15.8403 | solid 10.6043
  Impulse FP iterations last/mean/max 18/18.72/22
Solver finished successfully - good job!
Results saved successfully.

================== Run summary ==================
  Bodies:            2
  Triangles / nodes: 256 / 516
  Timesteps:         2000  (dt = 0.05)
  Simulated time:    0 -> 100
  First-step setup:  0.440 s
  Mean time/step:    0.2667 s  (excl. first step)
  Total wall time:   8m 53s
  Impulse FP iters last/mean/max: 20 / 18.698 / 22
  Approx impulse solves/step:     18.699
  Impulse start cache hits/direct: 1999 / 1
  Impulse global drift P/H:       2.336127e-8 / 1.288591e-2
  Impulse per-body max drift P/H: 4.613002e-8 / 2.419112e-3
  CPU cores:         256 available, 8 Rayon worker thread(s)
  Started:           2026-06-24 02:14:39
  Finished:          2026-06-24 02:23:33
  Output file:       /work/e643/e643/shared/multi_ellip/studies/two_body_paper_sweeps/runs/ellipsoid_1_0p8_0p6/ellipsoid_1_0p8_0p6_rho0p1_E4_sep11_run05_impulse_noproj/multiple_body_complete.dat
================================================
