
================ Simulation setup ================
  Run label:         /work/e643/e643/shared/multi_ellip/studies/two_body_paper_sweeps/runs/ellipsoid_1_0p8_0p6/ellipsoid_1_0p8_0p6_rho10_E1p5_sep8_run04_impulse_noproj/
  Started:           2026-06-24 01:17:40
  Input file:        /work/e643/e643/shared/multi_ellip/studies/two_body_paper_sweeps/runs/ellipsoid_1_0p8_0p6/ellipsoid_1_0p8_0p6_rho10_E1p5_sep8_run04_impulse_noproj/input.txt
  Output file:       /work/e643/e643/shared/multi_ellip/studies/two_body_paper_sweeps/runs/ellipsoid_1_0p8_0p6/ellipsoid_1_0p8_0p6_rho10_E1p5_sep8_run04_impulse_noproj/multiple_body_complete.dat
  Bodies:            2
  Fluid density:     1
  Mesh:              ndiv 2 -> 256 triangles / 516 nodes
  Simulated time:    0 -> 100  (dt = 0.05, ~2000 steps)
  Output cadence:    every 1 step(s)
  Output rows:       ~2001
  Progress cadence:  every 100 step(s)
  CPU cores:         256 available, 8 Rayon worker thread(s)
  Strong coupling:   disabled
  Impulse scheme:    enabled
  Hamiltonian step:  disabled
  Hamiltonian midpt: disabled
  Variational step:  disabled
  Energy projection: disabled
  Projection particular metric: Euclidean
  Fluid KE gradient: disabled  (eps = 0.001, scale = 1, linear = 1, angular = 1)
  Fluid KE discrete gradient: disabled
  Impulse pair metric correction: disabled  (mode = pair discrete-gradient, cutoff = all pairs, inner/outer = 0/0, eps = 0.001, linear scale = 1, angular scale = 0)
  Impulse metric correction: disabled  (internal load constraint = disabled)
  Impulse variational defect probe: disabled
  Impulse quadratic pressure: disabled  (scale = 1)
  Added-mass stab:   disabled
  Exact BEM geometry: disabled
  Exact singular BEM: disabled
  Legacy singular SLP diagnostic: disabled
  Phi-dot blend:     0 (off)

  Solver guidance:
    - Strong coupling: use for stiff close-coupled runs; slower but more implicit.
    - Impulse scheme: use when impulse/momentum conservation or KE drift is the focus. Recommended.
    - Added-mass stab: use for higher mesh counts (ndiv > 3) to preserve stability - deprecated.
================================================
Solver starting - good luck!

Initial state:
  Body  1
    density:          10.000000
    shape axes ratio: (1.000000, 0.800000, 0.600000)
    initial KE ratio: 1.500000
    position:         (-4.000000, 0.000000, 0.000000)
    velocity:         (2.818000, -1.241463, -1.418956)
    angular velocity: (-2.359643, 5.452770, -2.043968)
    orientation:      (w=0.665128, i=0.314374, j=0.115263, k=-0.667449)
  Body  2
    density:          10.000000
    shape axes ratio: (1.000000, 0.800000, 0.600000)
    initial KE ratio: 1.500000
    position:         (4.000000, 0.000000, 0.000000)
    velocity:         (2.816425, -1.240770, -1.418163)
    angular velocity: (-2.281787, -5.547035, -1.871435)
    orientation:      (w=0.776426, i=0.465698, j=-0.202756, k=-0.373065)

Preparing first step: implicit scheme, no bootstrap passes required.
First step may take longer than later steps.

First step completed in 7.163 s.

Step   100/2000    5.0% | t 5.000 | ETA 3m 7s | step 0.11s | KE 1252.9695 | drift -0.14% | fluid 42.5360 | solid 1210.4335
  Impulse FP iterations last/mean/max 8/7.04/8
Step   200/2000   10.0% | t 10.000 | ETA 2m 59s | step 0.09s | KE 1251.8802 | drift -0.23% | fluid 28.8429 | solid 1223.0374
  Impulse FP iterations last/mean/max 7/7.09/8
Step   300/2000   15.0% | t 15.000 | ETA 2m 50s | step 0.10s | KE 1249.9440 | drift -0.38% | fluid 37.6300 | solid 1212.3140
  Impulse FP iterations last/mean/max 7/7.08/8
Step   400/2000   20.0% | t 20.000 | ETA 2m 40s | step 0.10s | KE 1248.4701 | drift -0.50% | fluid 34.2299 | solid 1214.2402
  Impulse FP iterations last/mean/max 7/7.07/8
Step   500/2000   25.0% | t 25.000 | ETA 2m 31s | step 0.09s | KE 1246.9329 | drift -0.62% | fluid 31.1661 | solid 1215.7667
  Impulse FP iterations last/mean/max 7/7.07/8
Step   600/2000   30.0% | t 30.000 | ETA 2m 21s | step 0.10s | KE 1245.5787 | drift -0.73% | fluid 31.1796 | solid 1214.3991
  Impulse FP iterations last/mean/max 7/7.08/8
Step   700/2000   35.0% | t 35.000 | ETA 2m 10s | step 0.10s | KE 1244.4367 | drift -0.82% | fluid 26.2631 | solid 1218.1736
  Impulse FP iterations last/mean/max 7/7.07/8
Step   800/2000   40.0% | t 40.000 | ETA 2m 1s | step 0.10s | KE 1243.3280 | drift -0.91% | fluid 27.1550 | solid 1216.1730
  Impulse FP iterations last/mean/max 7/7.08/8
Step   900/2000   45.0% | t 45.000 | ETA 1m 51s | step 0.10s | KE 1242.2244 | drift -1.00% | fluid 29.8034 | solid 1212.4210
  Impulse FP iterations last/mean/max 7/7.07/8
Step  1000/2000   50.0% | t 50.000 | ETA 1m 41s | step 0.10s | KE 1241.4948 | drift -1.06% | fluid 25.8259 | solid 1215.6689
  Impulse FP iterations last/mean/max 7/7.08/8
Step  1100/2000   55.0% | t 55.000 | ETA 1m 30s | step 0.10s | KE 1240.6057 | drift -1.13% | fluid 34.7444 | solid 1205.8612
  Impulse FP iterations last/mean/max 8/7.08/8
Step  1200/2000   60.0% | t 60.000 | ETA 1m 20s | step 0.10s | KE 1240.3191 | drift -1.15% | fluid 26.2647 | solid 1214.0543
  Impulse FP iterations last/mean/max 7/7.07/8
Step  1300/2000   65.0% | t 65.000 | ETA 1m 9s | step 0.10s | KE 1239.9080 | drift -1.18% | fluid 36.1384 | solid 1203.7696
  Impulse FP iterations last/mean/max 7/7.07/8
Step  1400/2000   70.0% | t 70.000 | ETA 59s | step 0.10s | KE 1239.9234 | drift -1.18% | fluid 32.4598 | solid 1207.4636
  Impulse FP iterations last/mean/max 7/7.07/8
Step  1500/2000   75.0% | t 75.000 | ETA 49s | step 0.10s | KE 1239.8968 | drift -1.18% | fluid 28.9989 | solid 1210.8980
  Impulse FP iterations last/mean/max 7/7.07/8
Step  1600/2000   80.0% | t 80.000 | ETA 39s | step 0.10s | KE 1240.0438 | drift -1.17% | fluid 37.3138 | solid 1202.7300
  Impulse FP iterations last/mean/max 7/7.07/8
Step  1700/2000   85.0% | t 85.000 | ETA 29s | step 0.10s | KE 1240.7818 | drift -1.11% | fluid 27.9399 | solid 1212.8419
  Impulse FP iterations last/mean/max 7/7.07/8
Step  1800/2000   90.0% | t 90.000 | ETA 20s | step 0.10s | KE 1241.1759 | drift -1.08% | fluid 37.2336 | solid 1203.9423
  Impulse FP iterations last/mean/max 7/7.07/8
Step  1900/2000   95.0% | t 95.000 | ETA 10s | step 0.10s | KE 1242.3113 | drift -0.99% | fluid 30.1357 | solid 1212.1756
  Impulse FP iterations last/mean/max 7/7.07/8
Solver finished successfully - good job!
Results saved successfully.

================== Run summary ==================
  Bodies:            2
  Triangles / nodes: 256 / 516
  Timesteps:         2000  (dt = 0.05)
  Simulated time:    0 -> 100
  First-step setup:  7.163 s
  Mean time/step:    0.1003 s  (excl. first step)
  Total wall time:   3m 27s
  Impulse FP iters last/mean/max: 7 / 7.070 / 8
  Approx impulse solves/step:     7.071
  Impulse start cache hits/direct: 1999 / 1
  Impulse global drift P/H:       6.740118e-10 / 9.274060e-3
  Impulse per-body max drift P/H: 2.343705e-9 / 5.985709e-3
  CPU cores:         256 available, 8 Rayon worker thread(s)
  Started:           2026-06-24 01:17:40
  Finished:          2026-06-24 01:21:09
  Output file:       /work/e643/e643/shared/multi_ellip/studies/two_body_paper_sweeps/runs/ellipsoid_1_0p8_0p6/ellipsoid_1_0p8_0p6_rho10_E1p5_sep8_run04_impulse_noproj/multiple_body_complete.dat
================================================
