
================ Simulation setup ================
  Run label:         /work/e643/e643/shared/multi_ellip/studies/departing_sphericity_sweep/runs/spheroid_prolate/homogeneous/spheroid_prolate_homogeneous_eps1_rho1_E0p5_sep8_run04_impulse_noproj/
  Started:           2026-06-24 02:30:38
  Input file:        /work/e643/e643/shared/multi_ellip/studies/departing_sphericity_sweep/runs/spheroid_prolate/homogeneous/spheroid_prolate_homogeneous_eps1_rho1_E0p5_sep8_run04_impulse_noproj/input.txt
  Output file:       /work/e643/e643/shared/multi_ellip/studies/departing_sphericity_sweep/runs/spheroid_prolate/homogeneous/spheroid_prolate_homogeneous_eps1_rho1_E0p5_sep8_run04_impulse_noproj/multiple_body_complete.dat
  Bodies:            2
  Fluid density:     1
  Mesh:              ndiv 2 -> 256 triangles / 516 nodes
  Simulated time:    0 -> 100  (dt = 0.05, ~2000 steps)
  Output cadence:    every 1 step(s)
  Output rows:       ~2001
  Progress cadence:  every 100 step(s)
  CPU cores:         256 available, 8 Rayon worker thread(s)
  Strong coupling:   disabled
  Impulse scheme:    enabled
  Hamiltonian step:  disabled
  Hamiltonian midpt: disabled
  Variational step:  disabled
  Energy projection: disabled
  Projection particular metric: Euclidean
  Fluid KE gradient: disabled  (eps = 0.001, scale = 1, linear = 1, angular = 1)
  Fluid KE discrete gradient: disabled
  Impulse pair metric correction: disabled  (mode = pair discrete-gradient, cutoff = all pairs, inner/outer = 0/0, eps = 0.001, linear scale = 1, angular scale = 0)
  Impulse metric correction: disabled  (internal load constraint = disabled)
  Impulse variational defect probe: disabled
  Impulse quadratic pressure: disabled  (scale = 1)
  Added-mass stab:   disabled
  Exact BEM geometry: disabled
  Exact singular BEM: disabled
  Legacy singular SLP diagnostic: disabled
  Phi-dot blend:     0 (off)

  Solver guidance:
    - Strong coupling: use for stiff close-coupled runs; slower but more implicit.
    - Impulse scheme: use when impulse/momentum conservation or KE drift is the focus. Recommended.
    - Added-mass stab: use for higher mesh counts (ndiv > 3) to preserve stability - deprecated.
================================================
Solver starting - good luck!

Initial state:
  Body  1
    density:          1.000000
    shape axes ratio: (1.000000, 0.125000, 0.125000)
    initial KE ratio: 0.500000
    position:         (-4.000000, 0.000000, 0.000000)
    velocity:         (1.694224, -2.626799, 3.140230)
    angular velocity: (-6.133155, -1.010361, 0.917605)
    orientation:      (w=-0.118524, i=-0.624647, j=-0.220567, k=0.739674)
  Body  2
    density:          1.000000
    shape axes ratio: (1.000000, 0.125000, 0.125000)
    initial KE ratio: 0.500000
    position:         (4.000000, 0.000000, 0.000000)
    velocity:         (5.911035, -9.164727, 10.956054)
    angular velocity: (-1.673417, 6.055955, 0.059219)
    orientation:      (w=-0.670766, i=-0.421981, j=-0.530429, k=0.301081)

Preparing first step: implicit scheme, no bootstrap passes required.
First step may take longer than later steps.

First step completed in 0.420 s.

Step   100/2000    5.0% | t 5.000 | ETA 6m 20s | step 0.20s | KE 1925.7880 | drift +0.20% | fluid 773.5937 | solid 1152.1943
  Impulse FP iterations last/mean/max 14/13.75/15
Step   200/2000   10.0% | t 10.000 | ETA 6m 0s | step 0.20s | KE 1922.2020 | drift +0.01% | fluid 862.5526 | solid 1059.6494
  Impulse FP iterations last/mean/max 13/13.78/15
Step   300/2000   15.0% | t 15.000 | ETA 5m 40s | step 0.18s | KE 1923.7574 | drift +0.09% | fluid 918.2065 | solid 1005.5509
  Impulse FP iterations last/mean/max 13/13.83/16
Step   400/2000   20.0% | t 20.000 | ETA 5m 20s | step 0.21s | KE 1937.4867 | drift +0.81% | fluid 814.7651 | solid 1122.7216
  Impulse FP iterations last/mean/max 14/13.82/16
Step   500/2000   25.0% | t 25.000 | ETA 4m 59s | step 0.22s | KE 1941.9629 | drift +1.04% | fluid 775.2140 | solid 1166.7489
  Impulse FP iterations last/mean/max 14/13.81/16
Step   600/2000   30.0% | t 30.000 | ETA 4m 39s | step 0.20s | KE 1929.4390 | drift +0.39% | fluid 875.5758 | solid 1053.8631
  Impulse FP iterations last/mean/max 14/13.81/17
Step   700/2000   35.0% | t 35.000 | ETA 4m 19s | step 0.21s | KE 1921.5466 | drift -0.02% | fluid 896.2040 | solid 1025.3426
  Impulse FP iterations last/mean/max 14/13.81/17
Step   800/2000   40.0% | t 40.000 | ETA 3m 59s | step 0.18s | KE 1925.2800 | drift +0.17% | fluid 781.4468 | solid 1143.8332
  Impulse FP iterations last/mean/max 13/13.81/17
Step   900/2000   45.0% | t 45.000 | ETA 3m 39s | step 0.19s | KE 1925.6013 | drift +0.19% | fluid 773.7299 | solid 1151.8715
  Impulse FP iterations last/mean/max 13/13.81/17
Step  1000/2000   50.0% | t 50.000 | ETA 3m 19s | step 0.21s | KE 1921.6363 | drift -0.02% | fluid 887.9487 | solid 1033.6876
  Impulse FP iterations last/mean/max 14/13.80/17
Step  1100/2000   55.0% | t 55.000 | ETA 2m 59s | step 0.17s | KE 1928.3478 | drift +0.33% | fluid 881.9260 | solid 1046.4218
  Impulse FP iterations last/mean/max 13/13.79/17
Step  1200/2000   60.0% | t 60.000 | ETA 2m 38s | step 0.21s | KE 1941.4996 | drift +1.02% | fluid 776.9942 | solid 1164.5054
  Impulse FP iterations last/mean/max 15/13.78/17
Step  1300/2000   65.0% | t 65.000 | ETA 2m 17s | step 0.19s | KE 1938.6399 | drift +0.87% | fluid 802.5582 | solid 1136.0817
  Impulse FP iterations last/mean/max 15/13.78/17
Step  1400/2000   70.0% | t 70.000 | ETA 1m 56s | step 0.15s | KE 1924.7017 | drift +0.14% | fluid 910.3089 | solid 1014.3928
  Impulse FP iterations last/mean/max 14/13.78/17
Step  1500/2000   75.0% | t 75.000 | ETA 1m 35s | step 0.14s | KE 1922.0145 | drift +0.00% | fluid 868.2865 | solid 1053.7280
  Impulse FP iterations last/mean/max 13/13.79/17
Step  1600/2000   80.0% | t 80.000 | ETA 1m 15s | step 0.14s | KE 1925.8440 | drift +0.20% | fluid 771.2487 | solid 1154.5954
  Impulse FP iterations last/mean/max 13/13.79/17
Step  1700/2000   85.0% | t 85.000 | ETA 55s | step 0.12s | KE 1923.4518 | drift +0.08% | fluid 829.3074 | solid 1094.1444
  Impulse FP iterations last/mean/max 13/13.79/18
Step  1800/2000   90.0% | t 90.000 | ETA 36s | step 0.13s | KE 1921.4837 | drift -0.03% | fluid 930.1289 | solid 991.3548
  Impulse FP iterations last/mean/max 14/13.79/18
Step  1900/2000   95.0% | t 95.000 | ETA 17s | step 0.14s | KE 1932.8831 | drift +0.57% | fluid 864.3463 | solid 1068.5368
  Impulse FP iterations last/mean/max 15/13.79/18
Solver finished successfully - good job!
Results saved successfully.

================== Run summary ==================
  Bodies:            2
  Triangles / nodes: 256 / 516
  Timesteps:         2000  (dt = 0.05)
  Simulated time:    0 -> 100
  First-step setup:  0.420 s
  Mean time/step:    0.1770 s  (excl. first step)
  Total wall time:   5m 54s
  Impulse FP iters last/mean/max: 14 / 13.789 / 18
  Approx impulse solves/step:     13.790
  Impulse start cache hits/direct: 1999 / 1
  Impulse global drift P/H:       1.296083e-9 / 5.756645e-3
  Impulse per-body max drift P/H: 1.497510e-8 / 5.069359e-3
  CPU cores:         256 available, 8 Rayon worker thread(s)
  Started:           2026-06-24 02:30:38
  Finished:          2026-06-24 02:36:32
  Output file:       /work/e643/e643/shared/multi_ellip/studies/departing_sphericity_sweep/runs/spheroid_prolate/homogeneous/spheroid_prolate_homogeneous_eps1_rho1_E0p5_sep8_run04_impulse_noproj/multiple_body_complete.dat
================================================
