
================ Simulation setup ================
  Run label:         /work/e643/e643/shared/multi_ellip/studies/two_body_paper_sweeps/runs/ellipsoid_1_0p8_0p6/ellipsoid_1_0p8_0p6_rho0p1_E30_sep5_run05_impulse_noproj/
  Started:           2026-06-24 02:24:40
  Input file:        /work/e643/e643/shared/multi_ellip/studies/two_body_paper_sweeps/runs/ellipsoid_1_0p8_0p6/ellipsoid_1_0p8_0p6_rho0p1_E30_sep5_run05_impulse_noproj/input.txt
  Output file:       /work/e643/e643/shared/multi_ellip/studies/two_body_paper_sweeps/runs/ellipsoid_1_0p8_0p6/ellipsoid_1_0p8_0p6_rho0p1_E30_sep5_run05_impulse_noproj/multiple_body_complete.dat
  Bodies:            2
  Fluid density:     1
  Mesh:              ndiv 2 -> 256 triangles / 516 nodes
  Simulated time:    0 -> 100  (dt = 0.05, ~2000 steps)
  Output cadence:    every 1 step(s)
  Output rows:       ~2001
  Progress cadence:  every 100 step(s)
  CPU cores:         256 available, 8 Rayon worker thread(s)
  Strong coupling:   disabled
  Impulse scheme:    enabled
  Hamiltonian step:  disabled
  Hamiltonian midpt: disabled
  Variational step:  disabled
  Energy projection: disabled
  Projection particular metric: Euclidean
  Fluid KE gradient: disabled  (eps = 0.001, scale = 1, linear = 1, angular = 1)
  Fluid KE discrete gradient: disabled
  Impulse pair metric correction: disabled  (mode = pair discrete-gradient, cutoff = all pairs, inner/outer = 0/0, eps = 0.001, linear scale = 1, angular scale = 0)
  Impulse metric correction: disabled  (internal load constraint = disabled)
  Impulse variational defect probe: disabled
  Impulse quadratic pressure: disabled  (scale = 1)
  Added-mass stab:   disabled
  Exact BEM geometry: disabled
  Exact singular BEM: disabled
  Legacy singular SLP diagnostic: disabled
  Phi-dot blend:     0 (off)

  Solver guidance:
    - Strong coupling: use for stiff close-coupled runs; slower but more implicit.
    - Impulse scheme: use when impulse/momentum conservation or KE drift is the focus. Recommended.
    - Added-mass stab: use for higher mesh counts (ndiv > 3) to preserve stability - deprecated.
================================================
Solver starting - good luck!

Initial state:
  Body  1
    density:          0.100000
    shape axes ratio: (1.000000, 0.800000, 0.600000)
    initial KE ratio: 30.000000
    position:         (-2.500000, 0.000000, 0.000000)
    velocity:         (0.821020, 0.011633, 0.074849)
    angular velocity: (-0.948274, 2.431599, 5.715463)
    orientation:      (w=-0.025541, i=0.682966, j=0.268482, k=-0.678840)
  Body  2
    density:          0.100000
    shape axes ratio: (1.000000, 0.800000, 0.600000)
    initial KE ratio: 30.000000
    position:         (2.500000, 0.000000, 0.000000)
    velocity:         (0.739678, 0.010480, 0.067433)
    angular velocity: (-2.929363, -5.513785, -0.703866)
    orientation:      (w=-0.511065, i=-0.734661, j=-0.334149, k=0.295685)

Preparing first step: implicit scheme, no bootstrap passes required.
First step may take longer than later steps.

First step completed in 0.363 s.

Step   100/2000    5.0% | t 5.000 | ETA 9m 2s | step 0.30s | KE 14.1405 | drift -8.58% | fluid 6.9297 | solid 7.2108
  Impulse FP iterations last/mean/max 22/20.64/23
Step   200/2000   10.0% | t 10.000 | ETA 8m 59s | step 0.28s | KE 53.7444 | drift +247.47% | fluid 19.1008 | solid 34.6436
  Impulse FP iterations last/mean/max 20/21.27/30
Step   300/2000   15.0% | t 15.000 | ETA 8m 10s | step 0.26s | KE 62.7355 | drift +305.60% | fluid 26.5684 | solid 36.1671
  Impulse FP iterations last/mean/max 21/21.06/30
Step   400/2000   20.0% | t 20.000 | ETA 7m 32s | step 0.26s | KE 63.6582 | drift +311.56% | fluid 23.5307 | solid 40.1275
  Impulse FP iterations last/mean/max 21/20.93/30
Step   500/2000   25.0% | t 25.000 | ETA 6m 56s | step 0.23s | KE 63.7451 | drift +312.13% | fluid 22.1717 | solid 41.5734
  Impulse FP iterations last/mean/max 19/20.82/30
Step   600/2000   30.0% | t 30.000 | ETA 6m 24s | step 0.25s | KE 63.6560 | drift +311.55% | fluid 26.3613 | solid 37.2947
  Impulse FP iterations last/mean/max 19/20.78/30
Step   700/2000   35.0% | t 35.000 | ETA 5m 52s | step 0.30s | KE 63.4805 | drift +310.42% | fluid 30.9932 | solid 32.4873
  Impulse FP iterations last/mean/max 22/20.71/30
Step   800/2000   40.0% | t 40.000 | ETA 5m 23s | step 0.26s | KE 63.6462 | drift +311.49% | fluid 22.5433 | solid 41.1029
  Impulse FP iterations last/mean/max 21/20.70/30
Step   900/2000   45.0% | t 45.000 | ETA 4m 54s | step 0.22s | KE 63.6177 | drift +311.30% | fluid 22.1077 | solid 41.5100
  Impulse FP iterations last/mean/max 19/20.66/30
Step  1000/2000   50.0% | t 50.000 | ETA 4m 26s | step 0.28s | KE 63.6565 | drift +311.55% | fluid 23.0425 | solid 40.6140
  Impulse FP iterations last/mean/max 21/20.64/30
Step  1100/2000   55.0% | t 55.000 | ETA 3m 59s | step 0.25s | KE 63.6784 | drift +311.70% | fluid 23.4689 | solid 40.2095
  Impulse FP iterations last/mean/max 21/20.62/30
Step  1200/2000   60.0% | t 60.000 | ETA 3m 31s | step 0.26s | KE 63.6229 | drift +311.34% | fluid 29.9967 | solid 33.6261
  Impulse FP iterations last/mean/max 22/20.61/30
Step  1300/2000   65.0% | t 65.000 | ETA 3m 4s | step 0.22s | KE 63.6330 | drift +311.40% | fluid 30.4084 | solid 33.2246
  Impulse FP iterations last/mean/max 19/20.59/30
Step  1400/2000   70.0% | t 70.000 | ETA 2m 37s | step 0.23s | KE 63.6713 | drift +311.65% | fluid 27.2909 | solid 36.3804
  Impulse FP iterations last/mean/max 20/20.58/30
Step  1500/2000   75.0% | t 75.000 | ETA 2m 10s | step 0.25s | KE 63.6582 | drift +311.56% | fluid 24.5573 | solid 39.1009
  Impulse FP iterations last/mean/max 21/20.57/30
Step  1600/2000   80.0% | t 80.000 | ETA 1m 44s | step 0.26s | KE 63.6903 | drift +311.77% | fluid 22.1161 | solid 41.5743
  Impulse FP iterations last/mean/max 20/20.58/30
Step  1700/2000   85.0% | t 85.000 | ETA 1m 17s | step 0.24s | KE 63.8571 | drift +312.85% | fluid 22.5920 | solid 41.2651
  Impulse FP iterations last/mean/max 21/20.57/30
Step  1800/2000   90.0% | t 90.000 | ETA 51s | step 0.23s | KE 63.8398 | drift +312.74% | fluid 23.8880 | solid 39.9519
  Impulse FP iterations last/mean/max 19/20.57/30
Step  1900/2000   95.0% | t 95.000 | ETA 25s | step 0.21s | KE 63.6477 | drift +311.50% | fluid 27.3392 | solid 36.3084
  Impulse FP iterations last/mean/max 20/20.57/30
Solver finished successfully - good job!
Results saved successfully.

================== Run summary ==================
  Bodies:            2
  Triangles / nodes: 256 / 516
  Timesteps:         2000  (dt = 0.05)
  Simulated time:    0 -> 100
  First-step setup:  0.363 s
  Mean time/step:    0.2554 s  (excl. first step)
  Total wall time:   8m 30s
  Impulse FP iters last/mean/max: 21 / 20.560 / 30
  Approx impulse solves/step:     20.560
  Impulse start cache hits/direct: 1999 / 1
  Impulse global drift P/H:       8.218178e-1 / 1.362944e1
  Impulse per-body max drift P/H: 1.586451e0 / 5.971227e0
  CPU cores:         256 available, 8 Rayon worker thread(s)
  Started:           2026-06-24 02:24:40
  Finished:          2026-06-24 02:33:11
  Output file:       /work/e643/e643/shared/multi_ellip/studies/two_body_paper_sweeps/runs/ellipsoid_1_0p8_0p6/ellipsoid_1_0p8_0p6_rho0p1_E30_sep5_run05_impulse_noproj/multiple_body_complete.dat
================================================
