
================ Simulation setup ================
  Run label:         /work/e643/e643/shared/multi_ellip/studies/departing_sphericity_sweep/runs/spheroid_oblate/homogeneous/spheroid_oblate_homogeneous_eps0p01_rho1_E0p5_sep8_run05_impulse_noproj/
  Started:           2026-06-24 02:26:26
  Input file:        /work/e643/e643/shared/multi_ellip/studies/departing_sphericity_sweep/runs/spheroid_oblate/homogeneous/spheroid_oblate_homogeneous_eps0p01_rho1_E0p5_sep8_run05_impulse_noproj/input.txt
  Output file:       /work/e643/e643/shared/multi_ellip/studies/departing_sphericity_sweep/runs/spheroid_oblate/homogeneous/spheroid_oblate_homogeneous_eps0p01_rho1_E0p5_sep8_run05_impulse_noproj/multiple_body_complete.dat
  Bodies:            2
  Fluid density:     1
  Mesh:              ndiv 2 -> 256 triangles / 516 nodes
  Simulated time:    0 -> 100  (dt = 0.05, ~2000 steps)
  Output cadence:    every 1 step(s)
  Output rows:       ~2001
  Progress cadence:  every 100 step(s)
  CPU cores:         256 available, 8 Rayon worker thread(s)
  Strong coupling:   disabled
  Impulse scheme:    enabled
  Hamiltonian step:  disabled
  Hamiltonian midpt: disabled
  Variational step:  disabled
  Energy projection: disabled
  Projection particular metric: Euclidean
  Fluid KE gradient: disabled  (eps = 0.001, scale = 1, linear = 1, angular = 1)
  Fluid KE discrete gradient: disabled
  Impulse pair metric correction: disabled  (mode = pair discrete-gradient, cutoff = all pairs, inner/outer = 0/0, eps = 0.001, linear scale = 1, angular scale = 0)
  Impulse metric correction: disabled  (internal load constraint = disabled)
  Impulse variational defect probe: disabled
  Impulse quadratic pressure: disabled  (scale = 1)
  Added-mass stab:   disabled
  Exact BEM geometry: disabled
  Exact singular BEM: disabled
  Legacy singular SLP diagnostic: disabled
  Phi-dot blend:     0 (off)

  Solver guidance:
    - Strong coupling: use for stiff close-coupled runs; slower but more implicit.
    - Impulse scheme: use when impulse/momentum conservation or KE drift is the focus. Recommended.
    - Added-mass stab: use for higher mesh counts (ndiv > 3) to preserve stability - deprecated.
================================================
Solver starting - good luck!

Initial state:
  Body  1
    density:          1.000000
    shape axes ratio: (1.000000, 1.000000, 0.970590)
    initial KE ratio: 0.500000
    position:         (-4.000000, 0.000000, 0.000000)
    velocity:         (4.141231, -2.157393, 3.120515)
    angular velocity: (3.463581, -4.071963, 3.301688)
    orientation:      (w=0.116949, i=0.278006, j=-0.795582, k=0.525437)
  Body  2
    density:          1.000000
    shape axes ratio: (1.000000, 1.000000, 0.970590)
    initial KE ratio: 0.500000
    position:         (4.000000, 0.000000, 0.000000)
    velocity:         (4.124556, -2.148706, 3.107950)
    angular velocity: (1.896710, 5.974901, -0.425986)
    orientation:      (w=0.132155, i=0.014291, j=-0.341892, k=0.930290)

Preparing first step: implicit scheme, no bootstrap passes required.
First step may take longer than later steps.

First step completed in 0.276 s.

Step   100/2000    5.0% | t 5.000 | ETA 3m 21s | step 0.11s | KE 275.7658 | drift +2.44% | fluid 71.3569 | solid 204.4089
  Impulse FP iterations last/mean/max 8/7.86/8
Step   200/2000   10.0% | t 10.000 | ETA 3m 11s | step 0.10s | KE 285.7261 | drift +6.14% | fluid 71.4120 | solid 214.3141
  Impulse FP iterations last/mean/max 8/7.88/8
Step   300/2000   15.0% | t 15.000 | ETA 3m 0s | step 0.10s | KE 299.4525 | drift +11.24% | fluid 71.4465 | solid 228.0060
  Impulse FP iterations last/mean/max 8/7.86/8
Step   400/2000   20.0% | t 20.000 | ETA 2m 49s | step 0.11s | KE 317.1595 | drift +17.82% | fluid 71.3276 | solid 245.8319
  Impulse FP iterations last/mean/max 8/7.85/8
Step   500/2000   25.0% | t 25.000 | ETA 2m 38s | step 0.10s | KE 338.8083 | drift +25.86% | fluid 71.2232 | solid 267.5850
  Impulse FP iterations last/mean/max 7/7.82/8
Step   600/2000   30.0% | t 30.000 | ETA 2m 27s | step 0.10s | KE 363.8789 | drift +35.18% | fluid 71.8712 | solid 292.0077
  Impulse FP iterations last/mean/max 8/7.80/8
Step   700/2000   35.0% | t 35.000 | ETA 2m 16s | step 0.11s | KE 392.1440 | drift +45.68% | fluid 71.6125 | solid 320.5316
  Impulse FP iterations last/mean/max 8/7.77/8
Step   800/2000   40.0% | t 40.000 | ETA 2m 5s | step 0.10s | KE 422.8844 | drift +57.10% | fluid 71.7716 | solid 351.1128
  Impulse FP iterations last/mean/max 8/7.75/8
Step   900/2000   45.0% | t 45.000 | ETA 1m 55s | step 0.09s | KE 455.6916 | drift +69.29% | fluid 71.2913 | solid 384.4003
  Impulse FP iterations last/mean/max 7/7.73/8
Step  1000/2000   50.0% | t 50.000 | ETA 1m 44s | step 0.10s | KE 489.3549 | drift +81.79% | fluid 71.7574 | solid 417.5975
  Impulse FP iterations last/mean/max 7/7.72/8
Step  1100/2000   55.0% | t 55.000 | ETA 1m 33s | step 0.10s | KE 523.7853 | drift +94.58% | fluid 71.5466 | solid 452.2387
  Impulse FP iterations last/mean/max 7/7.71/8
Step  1200/2000   60.0% | t 60.000 | ETA 1m 23s | step 0.09s | KE 558.4143 | drift +107.45% | fluid 71.6111 | solid 486.8032
  Impulse FP iterations last/mean/max 7/7.70/8
Step  1300/2000   65.0% | t 65.000 | ETA 1m 12s | step 0.11s | KE 592.2764 | drift +120.03% | fluid 71.3533 | solid 520.9231
  Impulse FP iterations last/mean/max 8/7.69/8
Step  1400/2000   70.0% | t 70.000 | ETA 1m 2s | step 0.10s | KE 624.7932 | drift +132.11% | fluid 71.9122 | solid 552.8810
  Impulse FP iterations last/mean/max 7/7.69/8
Step  1500/2000   75.0% | t 75.000 | ETA 52s | step 0.11s | KE 655.9787 | drift +143.69% | fluid 71.5657 | solid 584.4130
  Impulse FP iterations last/mean/max 8/7.70/8
Step  1600/2000   80.0% | t 80.000 | ETA 41s | step 0.11s | KE 685.2383 | drift +154.56% | fluid 71.6367 | solid 613.6016
  Impulse FP iterations last/mean/max 8/7.70/8
Step  1700/2000   85.0% | t 85.000 | ETA 31s | step 0.10s | KE 712.8968 | drift +164.84% | fluid 71.3253 | solid 641.5715
  Impulse FP iterations last/mean/max 7/7.69/8
Step  1800/2000   90.0% | t 90.000 | ETA 20s | step 0.11s | KE 737.5533 | drift +173.99% | fluid 71.6938 | solid 665.8596
  Impulse FP iterations last/mean/max 8/7.70/8
Step  1900/2000   95.0% | t 95.000 | ETA 10s | step 0.09s | KE 760.6182 | drift +182.56% | fluid 71.8610 | solid 688.7571
  Impulse FP iterations last/mean/max 7/7.69/8
Solver finished successfully - good job!
Results saved successfully.

================== Run summary ==================
  Bodies:            2
  Triangles / nodes: 256 / 516
  Timesteps:         2000  (dt = 0.05)
  Simulated time:    0 -> 100
  First-step setup:  0.276 s
  Mean time/step:    0.1030 s  (excl. first step)
  Total wall time:   3m 26s
  Impulse FP iters last/mean/max: 8 / 7.690 / 8
  Approx impulse solves/step:     7.691
  Impulse start cache hits/direct: 1999 / 1
  Impulse global drift P/H:       2.036074e-8 / 1.497710e-1
  Impulse per-body max drift P/H: 4.849333e-8 / 1.400369e-2
  CPU cores:         256 available, 8 Rayon worker thread(s)
  Started:           2026-06-24 02:26:26
  Finished:          2026-06-24 02:29:52
  Output file:       /work/e643/e643/shared/multi_ellip/studies/departing_sphericity_sweep/runs/spheroid_oblate/homogeneous/spheroid_oblate_homogeneous_eps0p01_rho1_E0p5_sep8_run05_impulse_noproj/multiple_body_complete.dat
================================================
