
================ Simulation setup ================
  Run label:         /work/e643/e643/shared/multi_ellip/studies/departing_sphericity_sweep/runs/spheroid_prolate/homogeneous/spheroid_prolate_homogeneous_eps1_rho1_E0p5_sep8_run06_impulse_noproj/
  Started:           2026-06-24 02:30:38
  Input file:        /work/e643/e643/shared/multi_ellip/studies/departing_sphericity_sweep/runs/spheroid_prolate/homogeneous/spheroid_prolate_homogeneous_eps1_rho1_E0p5_sep8_run06_impulse_noproj/input.txt
  Output file:       /work/e643/e643/shared/multi_ellip/studies/departing_sphericity_sweep/runs/spheroid_prolate/homogeneous/spheroid_prolate_homogeneous_eps1_rho1_E0p5_sep8_run06_impulse_noproj/multiple_body_complete.dat
  Bodies:            2
  Fluid density:     1
  Mesh:              ndiv 2 -> 256 triangles / 516 nodes
  Simulated time:    0 -> 100  (dt = 0.05, ~2000 steps)
  Output cadence:    every 1 step(s)
  Output rows:       ~2001
  Progress cadence:  every 100 step(s)
  CPU cores:         256 available, 8 Rayon worker thread(s)
  Strong coupling:   disabled
  Impulse scheme:    enabled
  Hamiltonian step:  disabled
  Hamiltonian midpt: disabled
  Variational step:  disabled
  Energy projection: disabled
  Projection particular metric: Euclidean
  Fluid KE gradient: disabled  (eps = 0.001, scale = 1, linear = 1, angular = 1)
  Fluid KE discrete gradient: disabled
  Impulse pair metric correction: disabled  (mode = pair discrete-gradient, cutoff = all pairs, inner/outer = 0/0, eps = 0.001, linear scale = 1, angular scale = 0)
  Impulse metric correction: disabled  (internal load constraint = disabled)
  Impulse variational defect probe: disabled
  Impulse quadratic pressure: disabled  (scale = 1)
  Added-mass stab:   disabled
  Exact BEM geometry: disabled
  Exact singular BEM: disabled
  Legacy singular SLP diagnostic: disabled
  Phi-dot blend:     0 (off)

  Solver guidance:
    - Strong coupling: use for stiff close-coupled runs; slower but more implicit.
    - Impulse scheme: use when impulse/momentum conservation or KE drift is the focus. Recommended.
    - Added-mass stab: use for higher mesh counts (ndiv > 3) to preserve stability - deprecated.
================================================
Solver starting - good luck!

Initial state:
  Body  1
    density:          1.000000
    shape axes ratio: (1.000000, 0.125000, 0.125000)
    initial KE ratio: 0.500000
    position:         (-4.000000, 0.000000, 0.000000)
    velocity:         (-6.027272, 6.171613, 7.035752)
    angular velocity: (-4.589344, -4.031411, -1.471075)
    orientation:      (w=0.322990, i=0.107844, j=-0.076094, k=-0.937154)
  Body  2
    density:          1.000000
    shape axes ratio: (1.000000, 0.125000, 0.125000)
    initial KE ratio: 0.500000
    position:         (4.000000, 0.000000, 0.000000)
    velocity:         (-8.633518, 8.840273, 10.078074)
    angular velocity: (-0.611278, 3.845573, 4.931159)
    orientation:      (w=0.821163, i=-0.049272, j=-0.248677, k=-0.511296)

Preparing first step: implicit scheme, no bootstrap passes required.
First step may take longer than later steps.

First step completed in 0.416 s.

Step   100/2000    5.0% | t 5.000 | ETA 6m 20s | step 0.19s | KE 2088.3787 | drift +1.50% | fluid 1027.5465 | solid 1060.8322
  Impulse FP iterations last/mean/max 13/13.66/15
Step   200/2000   10.0% | t 10.000 | ETA 5m 57s | step 0.20s | KE 2100.7446 | drift +2.10% | fluid 995.3917 | solid 1105.3529
  Impulse FP iterations last/mean/max 14/13.53/15
Step   300/2000   15.0% | t 15.000 | ETA 5m 35s | step 0.23s | KE 2110.3387 | drift +2.57% | fluid 946.3503 | solid 1163.9884
  Impulse FP iterations last/mean/max 16/13.50/16
Step   400/2000   20.0% | t 20.000 | ETA 5m 14s | step 0.19s | KE 2109.5797 | drift +2.53% | fluid 950.4524 | solid 1159.1274
  Impulse FP iterations last/mean/max 13/13.48/16
Step   500/2000   25.0% | t 25.000 | ETA 4m 52s | step 0.16s | KE 2099.1187 | drift +2.02% | fluid 1000.0885 | solid 1099.0302
  Impulse FP iterations last/mean/max 12/13.48/16
Step   600/2000   30.0% | t 30.000 | ETA 4m 30s | step 0.18s | KE 2089.0177 | drift +1.53% | fluid 1028.2164 | solid 1060.8013
  Impulse FP iterations last/mean/max 13/13.47/16
Step   700/2000   35.0% | t 35.000 | ETA 4m 8s | step 0.18s | KE 2085.5163 | drift +1.36% | fluid 988.1536 | solid 1097.3626
  Impulse FP iterations last/mean/max 13/13.44/16
Step   800/2000   40.0% | t 40.000 | ETA 3m 50s | step 0.19s | KE 2085.5613 | drift +1.36% | fluid 936.0311 | solid 1149.5303
  Impulse FP iterations last/mean/max 13/13.46/16
Step   900/2000   45.0% | t 45.000 | ETA 3m 31s | step 0.21s | KE 2085.3450 | drift +1.35% | fluid 939.9671 | solid 1145.3779
  Impulse FP iterations last/mean/max 14/13.46/16
Step  1000/2000   50.0% | t 50.000 | ETA 3m 12s | step 0.17s | KE 2085.4636 | drift +1.36% | fluid 997.0291 | solid 1088.4346
  Impulse FP iterations last/mean/max 12/13.46/16
Step  1100/2000   55.0% | t 55.000 | ETA 2m 53s | step 0.18s | KE 2090.2877 | drift +1.59% | fluid 1027.9109 | solid 1062.3768
  Impulse FP iterations last/mean/max 13/13.45/16
Step  1200/2000   60.0% | t 60.000 | ETA 2m 33s | step 0.18s | KE 2100.9682 | drift +2.11% | fluid 993.5384 | solid 1107.4298
  Impulse FP iterations last/mean/max 14/13.45/16
Step  1300/2000   65.0% | t 65.000 | ETA 2m 12s | step 0.18s | KE 2110.2711 | drift +2.56% | fluid 945.1227 | solid 1165.1484
  Impulse FP iterations last/mean/max 14/13.45/16
Step  1400/2000   70.0% | t 70.000 | ETA 1m 52s | step 0.15s | KE 2109.2786 | drift +2.52% | fluid 951.4658 | solid 1157.8128
  Impulse FP iterations last/mean/max 13/13.44/16
Step  1500/2000   75.0% | t 75.000 | ETA 1m 32s | step 0.14s | KE 2098.9959 | drift +2.02% | fluid 1002.3204 | solid 1096.6754
  Impulse FP iterations last/mean/max 13/13.44/16
Step  1600/2000   80.0% | t 80.000 | ETA 1m 13s | step 0.14s | KE 2088.8741 | drift +1.52% | fluid 1027.9125 | solid 1060.9616
  Impulse FP iterations last/mean/max 13/13.44/16
Step  1700/2000   85.0% | t 85.000 | ETA 54s | step 0.14s | KE 2085.1973 | drift +1.34% | fluid 985.8800 | solid 1099.3174
  Impulse FP iterations last/mean/max 13/13.44/16
Step  1800/2000   90.0% | t 90.000 | ETA 35s | step 0.13s | KE 2085.4863 | drift +1.36% | fluid 934.7590 | solid 1150.7274
  Impulse FP iterations last/mean/max 14/13.44/16
Step  1900/2000   95.0% | t 95.000 | ETA 17s | step 0.13s | KE 2085.5982 | drift +1.36% | fluid 941.8432 | solid 1143.7550
  Impulse FP iterations last/mean/max 14/13.44/16
Solver finished successfully - good job!
Results saved successfully.

================== Run summary ==================
  Bodies:            2
  Triangles / nodes: 256 / 516
  Timesteps:         2000  (dt = 0.05)
  Simulated time:    0 -> 100
  First-step setup:  0.416 s
  Mean time/step:    0.1722 s  (excl. first step)
  Total wall time:   5m 44s
  Impulse FP iters last/mean/max: 12 / 13.443 / 16
  Approx impulse solves/step:     13.443
  Impulse start cache hits/direct: 1999 / 1
  Impulse global drift P/H:       6.687658e-9 / 5.986191e-2
  Impulse per-body max drift P/H: 1.245423e-8 / 2.521609e-2
  CPU cores:         256 available, 8 Rayon worker thread(s)
  Started:           2026-06-24 02:30:38
  Finished:          2026-06-24 02:36:23
  Output file:       /work/e643/e643/shared/multi_ellip/studies/departing_sphericity_sweep/runs/spheroid_prolate/homogeneous/spheroid_prolate_homogeneous_eps1_rho1_E0p5_sep8_run06_impulse_noproj/multiple_body_complete.dat
================================================
