
================ Simulation setup ================
  Run label:         /work/e643/e643/shared/multi_ellip/studies/two_body_paper_sweeps/runs/spheroid_1_0p7_0p7/spheroid_1_0p7_0p7_rho4_E0p55_sep5_run01_impulse_noproj/
  Started:           2026-06-22 19:26:45
  Input file:        /work/e643/e643/shared/multi_ellip/studies/two_body_paper_sweeps/runs/spheroid_1_0p7_0p7/spheroid_1_0p7_0p7_rho4_E0p55_sep5_run01_impulse_noproj/input.txt
  Output file:       /work/e643/e643/shared/multi_ellip/studies/two_body_paper_sweeps/runs/spheroid_1_0p7_0p7/spheroid_1_0p7_0p7_rho4_E0p55_sep5_run01_impulse_noproj/multiple_body_complete.dat
  Bodies:            2
  Fluid density:     1
  Mesh:              ndiv 2 -> 256 triangles / 516 nodes
  Simulated time:    0 -> 100  (dt = 0.05, ~2000 steps)
  Output cadence:    every 1 step(s)
  Output rows:       ~2001
  Progress cadence:  every 100 step(s)
  CPU cores:         256 available, 8 Rayon worker thread(s)
  Strong coupling:   disabled
  Impulse scheme:    enabled
  Hamiltonian step:  disabled
  Hamiltonian midpt: disabled
  Variational step:  disabled
  Energy projection: disabled
  Projection particular metric: Euclidean
  Fluid KE gradient: disabled  (eps = 0.001, scale = 1, linear = 1, angular = 1)
  Fluid KE discrete gradient: disabled
  Impulse pair metric correction: disabled  (mode = pair discrete-gradient, cutoff = all pairs, inner/outer = 0/0, eps = 0.001, linear scale = 1, angular scale = 0)
  Impulse metric correction: disabled  (internal load constraint = disabled)
  Impulse variational defect probe: disabled
  Impulse quadratic pressure: disabled  (scale = 1)
  Added-mass stab:   disabled
  Exact BEM geometry: disabled
  Exact singular BEM: disabled
  Legacy singular SLP diagnostic: disabled
  Phi-dot blend:     0 (off)

  Solver guidance:
    - Strong coupling: use for stiff close-coupled runs; slower but more implicit.
    - Impulse scheme: use when impulse/momentum conservation or KE drift is the focus. Recommended.
    - Added-mass stab: use for higher mesh counts (ndiv > 3) to preserve stability - deprecated.
================================================
Solver starting - good luck!

Initial state:
  Body  1
    density:          4.000000
    shape axes ratio: (1.000000, 0.700000, 0.700000)
    initial KE ratio: 0.550000
    position:         (-2.500000, 0.000000, 0.000000)
    velocity:         (-3.370206, 3.170125, 2.364572)
    angular velocity: (-4.985357, -3.537531, -1.452758)
    orientation:      (w=0.447214, i=0.894427, j=0.000000, k=0.000000)
  Body  2
    density:          4.000000
    shape axes ratio: (1.000000, 0.700000, 0.700000)
    initial KE ratio: 0.550000
    position:         (2.500000, 0.000000, 0.000000)
    velocity:         (-3.800219, 3.574609, 2.666274)
    angular velocity: (-0.538753, 2.119124, 5.890456)
    orientation:      (w=0.707107, i=0.000000, j=0.707107, k=0.000000)

Preparing first step: implicit scheme, no bootstrap passes required.
First step may take longer than later steps.

First step completed in 0.316 s.

Step   100/2000    5.0% | t 5.000 | ETA 3m 40s | step 0.12s | KE 822.7005 | drift -0.14% | fluid 68.7064 | solid 753.9941
  Impulse FP iterations last/mean/max 8/8.03/9
Step   200/2000   10.0% | t 10.000 | ETA 3m 29s | step 0.11s | KE 868.3563 | drift +5.40% | fluid 80.5627 | solid 787.7936
  Impulse FP iterations last/mean/max 8/8.02/9
Step   300/2000   15.0% | t 15.000 | ETA 3m 13s | step 0.11s | KE 878.0895 | drift +6.58% | fluid 76.8316 | solid 801.2579
  Impulse FP iterations last/mean/max 8/7.86/9
Step   400/2000   20.0% | t 20.000 | ETA 2m 59s | step 0.10s | KE 879.3792 | drift +6.74% | fluid 65.8819 | solid 813.4972
  Impulse FP iterations last/mean/max 7/7.75/9
Step   500/2000   25.0% | t 25.000 | ETA 2m 46s | step 0.12s | KE 879.9225 | drift +6.81% | fluid 60.6077 | solid 819.3148
  Impulse FP iterations last/mean/max 8/7.69/9
Step   600/2000   30.0% | t 30.000 | ETA 2m 34s | step 0.12s | KE 879.9700 | drift +6.81% | fluid 64.4910 | solid 815.4790
  Impulse FP iterations last/mean/max 8/7.64/9
Step   700/2000   35.0% | t 35.000 | ETA 2m 22s | step 0.10s | KE 879.6933 | drift +6.78% | fluid 75.6442 | solid 804.0491
  Impulse FP iterations last/mean/max 7/7.61/9
Step   800/2000   40.0% | t 40.000 | ETA 2m 11s | step 0.12s | KE 879.5709 | drift +6.76% | fluid 82.3633 | solid 797.2076
  Impulse FP iterations last/mean/max 8/7.58/9
Step   900/2000   45.0% | t 45.000 | ETA 2m 0s | step 0.10s | KE 879.6824 | drift +6.78% | fluid 77.3104 | solid 802.3721
  Impulse FP iterations last/mean/max 7/7.56/9
Step  1000/2000   50.0% | t 50.000 | ETA 1m 48s | step 0.11s | KE 879.9580 | drift +6.81% | fluid 64.4232 | solid 815.5348
  Impulse FP iterations last/mean/max 7/7.54/9
Step  1100/2000   55.0% | t 55.000 | ETA 1m 37s | step 0.09s | KE 880.1093 | drift +6.83% | fluid 57.0631 | solid 823.0462
  Impulse FP iterations last/mean/max 7/7.53/9
Step  1200/2000   60.0% | t 60.000 | ETA 1m 25s | step 0.08s | KE 879.9895 | drift +6.81% | fluid 59.9798 | solid 820.0097
  Impulse FP iterations last/mean/max 7/7.52/9
Step  1300/2000   65.0% | t 65.000 | ETA 1m 13s | step 0.10s | KE 879.6888 | drift +6.78% | fluid 71.3776 | solid 808.3113
  Impulse FP iterations last/mean/max 8/7.52/9
Step  1400/2000   70.0% | t 70.000 | ETA 1m 2s | step 0.11s | KE 879.5175 | drift +6.76% | fluid 81.6234 | solid 797.8942
  Impulse FP iterations last/mean/max 8/7.51/9
Step  1500/2000   75.0% | t 75.000 | ETA 52s | step 0.11s | KE 879.6043 | drift +6.77% | fluid 80.5323 | solid 799.0720
  Impulse FP iterations last/mean/max 8/7.50/9
Step  1600/2000   80.0% | t 80.000 | ETA 41s | step 0.10s | KE 879.8506 | drift +6.80% | fluid 69.8900 | solid 809.9606
  Impulse FP iterations last/mean/max 7/7.50/9
Step  1700/2000   85.0% | t 85.000 | ETA 31s | step 0.10s | KE 880.0226 | drift +6.82% | fluid 61.6289 | solid 818.3936
  Impulse FP iterations last/mean/max 7/7.49/9
Step  1800/2000   90.0% | t 90.000 | ETA 20s | step 0.10s | KE 879.9142 | drift +6.81% | fluid 62.7365 | solid 817.1777
  Impulse FP iterations last/mean/max 7/7.49/9
Step  1900/2000   95.0% | t 95.000 | ETA 10s | step 0.10s | KE 879.6299 | drift +6.77% | fluid 71.3903 | solid 808.2396
  Impulse FP iterations last/mean/max 8/7.49/9
Solver finished successfully - good job!
Results saved successfully.

================== Run summary ==================
  Bodies:            2
  Triangles / nodes: 256 / 516
  Timesteps:         2000  (dt = 0.05)
  Simulated time:    0 -> 100
  First-step setup:  0.316 s
  Mean time/step:    0.1025 s  (excl. first step)
  Total wall time:   3m 25s
  Impulse FP iters last/mean/max: 8 / 7.483 / 9
  Approx impulse solves/step:     7.483
  Impulse start cache hits/direct: 1999 / 1
  Impulse global drift P/H:       6.446454e-9 / 5.101087e-2
  Impulse per-body max drift P/H: 1.474760e-8 / 1.256633e-2
  CPU cores:         256 available, 8 Rayon worker thread(s)
  Started:           2026-06-22 19:26:45
  Finished:          2026-06-22 19:30:11
  Output file:       /work/e643/e643/shared/multi_ellip/studies/two_body_paper_sweeps/runs/spheroid_1_0p7_0p7/spheroid_1_0p7_0p7_rho4_E0p55_sep5_run01_impulse_noproj/multiple_body_complete.dat
================================================
