
================ Simulation setup ================
  Run label:         /work/e643/e643/shared/multi_ellip/studies/departing_sphericity_sweep/runs/triaxial/homogeneous/triaxial_homogeneous_eps0p003_rho1_E0p5_sep8_run08_impulse_noproj/
  Started:           2026-06-24 02:26:26
  Input file:        /work/e643/e643/shared/multi_ellip/studies/departing_sphericity_sweep/runs/triaxial/homogeneous/triaxial_homogeneous_eps0p003_rho1_E0p5_sep8_run08_impulse_noproj/input.txt
  Output file:       /work/e643/e643/shared/multi_ellip/studies/departing_sphericity_sweep/runs/triaxial/homogeneous/triaxial_homogeneous_eps0p003_rho1_E0p5_sep8_run08_impulse_noproj/multiple_body_complete.dat
  Bodies:            2
  Fluid density:     1
  Mesh:              ndiv 2 -> 256 triangles / 516 nodes
  Simulated time:    0 -> 100  (dt = 0.05, ~2000 steps)
  Output cadence:    every 1 step(s)
  Output rows:       ~2001
  Progress cadence:  every 100 step(s)
  CPU cores:         256 available, 8 Rayon worker thread(s)
  Strong coupling:   disabled
  Impulse scheme:    enabled
  Hamiltonian step:  disabled
  Hamiltonian midpt: disabled
  Variational step:  disabled
  Energy projection: disabled
  Projection particular metric: Euclidean
  Fluid KE gradient: disabled  (eps = 0.001, scale = 1, linear = 1, angular = 1)
  Fluid KE discrete gradient: disabled
  Impulse pair metric correction: disabled  (mode = pair discrete-gradient, cutoff = all pairs, inner/outer = 0/0, eps = 0.001, linear scale = 1, angular scale = 0)
  Impulse metric correction: disabled  (internal load constraint = disabled)
  Impulse variational defect probe: disabled
  Impulse quadratic pressure: disabled  (scale = 1)
  Added-mass stab:   disabled
  Exact BEM geometry: disabled
  Exact singular BEM: disabled
  Legacy singular SLP diagnostic: disabled
  Phi-dot blend:     0 (off)

  Solver guidance:
    - Strong coupling: use for stiff close-coupled runs; slower but more implicit.
    - Impulse scheme: use when impulse/momentum conservation or KE drift is the focus. Recommended.
    - Added-mass stab: use for higher mesh counts (ndiv > 3) to preserve stability - deprecated.
================================================
Solver starting - good luck!

Initial state:
  Body  1
    density:          1.000000
    shape axes ratio: (1.000000, 0.997009, 0.994027)
    initial KE ratio: 0.500000
    position:         (-4.000000, 0.000000, 0.000000)
    velocity:         (3.604563, -2.517883, 3.491752)
    angular velocity: (5.459526, 2.027685, -2.358069)
    orientation:      (w=0.577214, i=0.458598, j=-0.658878, k=0.149636)
  Body  2
    density:          1.000000
    shape axes ratio: (1.000000, 0.997009, 0.994027)
    initial KE ratio: 0.500000
    position:         (4.000000, 0.000000, 0.000000)
    velocity:         (3.610703, -2.522172, 3.497699)
    angular velocity: (-1.551756, 3.753424, -4.793983)
    orientation:      (w=0.028440, i=0.064980, j=0.942025, k=-0.327961)

Preparing first step: implicit scheme, no bootstrap passes required.
First step may take longer than later steps.

First step completed in 0.247 s.

Step   100/2000    5.0% | t 5.000 | ETA 3m 14s | step 0.10s | KE 272.8058 | drift +0.83% | fluid 72.1333 | solid 200.6725
  Impulse FP iterations last/mean/max 8/7.96/8
Step   200/2000   10.0% | t 10.000 | ETA 2m 58s | step 0.10s | KE 277.9681 | drift +2.74% | fluid 72.2286 | solid 205.7395
  Impulse FP iterations last/mean/max 8/7.94/8
Step   300/2000   15.0% | t 15.000 | ETA 2m 52s | step 0.11s | KE 286.1583 | drift +5.76% | fluid 72.1631 | solid 213.9952
  Impulse FP iterations last/mean/max 8/7.93/8
Step   400/2000   20.0% | t 20.000 | ETA 2m 46s | step 0.11s | KE 297.4423 | drift +9.93% | fluid 72.1756 | solid 225.2666
  Impulse FP iterations last/mean/max 8/7.93/8
Step   500/2000   25.0% | t 25.000 | ETA 2m 38s | step 0.11s | KE 311.9102 | drift +15.28% | fluid 72.1508 | solid 239.7594
  Impulse FP iterations last/mean/max 8/7.94/8
Step   600/2000   30.0% | t 30.000 | ETA 2m 29s | step 0.11s | KE 329.6296 | drift +21.83% | fluid 72.1838 | solid 257.4458
  Impulse FP iterations last/mean/max 8/7.95/8
Step   700/2000   35.0% | t 35.000 | ETA 2m 20s | step 0.11s | KE 350.6918 | drift +29.62% | fluid 72.1808 | solid 278.5111
  Impulse FP iterations last/mean/max 8/7.96/8
Step   800/2000   40.0% | t 40.000 | ETA 2m 10s | step 0.12s | KE 375.1480 | drift +38.65% | fluid 72.1723 | solid 302.9757
  Impulse FP iterations last/mean/max 8/7.96/8
Step   900/2000   45.0% | t 45.000 | ETA 1m 59s | step 0.11s | KE 403.0629 | drift +48.97% | fluid 72.2078 | solid 330.8551
  Impulse FP iterations last/mean/max 8/7.95/8
Step  1000/2000   50.0% | t 50.000 | ETA 1m 48s | step 0.11s | KE 434.4867 | drift +60.59% | fluid 72.2130 | solid 362.2737
  Impulse FP iterations last/mean/max 8/7.92/8
Step  1100/2000   55.0% | t 55.000 | ETA 1m 37s | step 0.12s | KE 469.4674 | drift +73.52% | fluid 72.1697 | solid 397.2977
  Impulse FP iterations last/mean/max 8/7.90/8
Step  1200/2000   60.0% | t 60.000 | ETA 1m 27s | step 0.11s | KE 508.0115 | drift +87.76% | fluid 72.2051 | solid 435.8063
  Impulse FP iterations last/mean/max 8/7.88/8
Step  1300/2000   65.0% | t 65.000 | ETA 1m 16s | step 0.10s | KE 550.1878 | drift +103.35% | fluid 72.1435 | solid 478.0443
  Impulse FP iterations last/mean/max 7/7.88/8
Step  1400/2000   70.0% | t 70.000 | ETA 1m 5s | step 0.11s | KE 595.9036 | drift +120.25% | fluid 72.2289 | solid 523.6747
  Impulse FP iterations last/mean/max 8/7.87/8
Step  1500/2000   75.0% | t 75.000 | ETA 54s | step 0.11s | KE 645.2826 | drift +138.50% | fluid 72.1678 | solid 573.1147
  Impulse FP iterations last/mean/max 8/7.86/8
Step  1600/2000   80.0% | t 80.000 | ETA 43s | step 0.11s | KE 698.3031 | drift +158.09% | fluid 72.1452 | solid 626.1579
  Impulse FP iterations last/mean/max 8/7.84/8
Step  1700/2000   85.0% | t 85.000 | ETA 32s | step 0.10s | KE 754.8705 | drift +179.00% | fluid 72.1215 | solid 682.7490
  Impulse FP iterations last/mean/max 7/7.82/8
Step  1800/2000   90.0% | t 90.000 | ETA 21s | step 0.10s | KE 814.8660 | drift +201.17% | fluid 72.2208 | solid 742.6452
  Impulse FP iterations last/mean/max 8/7.80/8
Step  1900/2000   95.0% | t 95.000 | ETA 10s | step 0.09s | KE 878.5224 | drift +224.70% | fluid 72.1439 | solid 806.3784
  Impulse FP iterations last/mean/max 7/7.77/8
Solver finished successfully - good job!
Results saved successfully.

================== Run summary ==================
  Bodies:            2
  Triangles / nodes: 256 / 516
  Timesteps:         2000  (dt = 0.05)
  Simulated time:    0 -> 100
  First-step setup:  0.247 s
  Mean time/step:    0.1065 s  (excl. first step)
  Total wall time:   3m 33s
  Impulse FP iters last/mean/max: 7 / 7.744 / 8
  Approx impulse solves/step:     7.744
  Impulse start cache hits/direct: 1999 / 1
  Impulse global drift P/H:       1.698051e-8 / 8.478966e-2
  Impulse per-body max drift P/H: 2.080123e-8 / 7.341371e-3
  CPU cores:         256 available, 8 Rayon worker thread(s)
  Started:           2026-06-24 02:26:26
  Finished:          2026-06-24 02:30:00
  Output file:       /work/e643/e643/shared/multi_ellip/studies/departing_sphericity_sweep/runs/triaxial/homogeneous/triaxial_homogeneous_eps0p003_rho1_E0p5_sep8_run08_impulse_noproj/multiple_body_complete.dat
================================================
