
================ Simulation setup ================
  Run label:         /work/e643/e643/shared/multi_ellip/studies/two_body_paper_sweeps/runs/ellipsoid_1_0p8_0p6/ellipsoid_1_0p8_0p6_rho0p3_E1p5_sep5_run04_impulse_noproj/
  Started:           2026-06-24 01:51:04
  Input file:        /work/e643/e643/shared/multi_ellip/studies/two_body_paper_sweeps/runs/ellipsoid_1_0p8_0p6/ellipsoid_1_0p8_0p6_rho0p3_E1p5_sep5_run04_impulse_noproj/input.txt
  Output file:       /work/e643/e643/shared/multi_ellip/studies/two_body_paper_sweeps/runs/ellipsoid_1_0p8_0p6/ellipsoid_1_0p8_0p6_rho0p3_E1p5_sep5_run04_impulse_noproj/multiple_body_complete.dat
  Bodies:            2
  Fluid density:     1
  Mesh:              ndiv 2 -> 256 triangles / 516 nodes
  Simulated time:    0 -> 100  (dt = 0.05, ~2000 steps)
  Output cadence:    every 1 step(s)
  Output rows:       ~2001
  Progress cadence:  every 100 step(s)
  CPU cores:         256 available, 8 Rayon worker thread(s)
  Strong coupling:   disabled
  Impulse scheme:    enabled
  Hamiltonian step:  disabled
  Hamiltonian midpt: disabled
  Variational step:  disabled
  Energy projection: disabled
  Projection particular metric: Euclidean
  Fluid KE gradient: disabled  (eps = 0.001, scale = 1, linear = 1, angular = 1)
  Fluid KE discrete gradient: disabled
  Impulse pair metric correction: disabled  (mode = pair discrete-gradient, cutoff = all pairs, inner/outer = 0/0, eps = 0.001, linear scale = 1, angular scale = 0)
  Impulse metric correction: disabled  (internal load constraint = disabled)
  Impulse variational defect probe: disabled
  Impulse quadratic pressure: disabled  (scale = 1)
  Added-mass stab:   disabled
  Exact BEM geometry: disabled
  Exact singular BEM: disabled
  Legacy singular SLP diagnostic: disabled
  Phi-dot blend:     0 (off)

  Solver guidance:
    - Strong coupling: use for stiff close-coupled runs; slower but more implicit.
    - Impulse scheme: use when impulse/momentum conservation or KE drift is the focus. Recommended.
    - Added-mass stab: use for higher mesh counts (ndiv > 3) to preserve stability - deprecated.
================================================
Solver starting - good luck!

Initial state:
  Body  1
    density:          0.300000
    shape axes ratio: (1.000000, 0.800000, 0.600000)
    initial KE ratio: 1.500000
    position:         (-2.500000, 0.000000, 0.000000)
    velocity:         (-2.557047, 0.228200, 1.950669)
    angular velocity: (-4.136028, -4.628512, -0.973943)
    orientation:      (w=0.169460, i=0.026960, j=0.849619, k=0.498703)
  Body  2
    density:          0.300000
    shape axes ratio: (1.000000, 0.800000, 0.600000)
    initial KE ratio: 1.500000
    position:         (2.500000, 0.000000, 0.000000)
    velocity:         (-2.720041, 0.242747, 2.075010)
    angular velocity: (-1.300008, 5.848511, 1.892965)
    orientation:      (w=0.193477, i=-0.431722, j=-0.745163, k=-0.470016)

Preparing first step: implicit scheme, no bootstrap passes required.
First step may take longer than later steps.

First step completed in 0.375 s.

Step   100/2000    5.0% | t 5.000 | ETA 6m 36s | step 0.21s | KE 58.7274 | drift -4.34% | fluid 27.0741 | solid 31.6532
  Impulse FP iterations last/mean/max 15/14.18/16
Step   200/2000   10.0% | t 10.000 | ETA 6m 9s | step 0.21s | KE 57.8579 | drift -5.76% | fluid 26.5332 | solid 31.3247
  Impulse FP iterations last/mean/max 15/14.21/16
Step   300/2000   15.0% | t 15.000 | ETA 5m 47s | step 0.21s | KE 58.5349 | drift -4.66% | fluid 26.6870 | solid 31.8479
  Impulse FP iterations last/mean/max 14/14.24/16
Step   400/2000   20.0% | t 20.000 | ETA 5m 24s | step 0.19s | KE 58.9836 | drift -3.93% | fluid 26.4416 | solid 32.5420
  Impulse FP iterations last/mean/max 14/14.19/16
Step   500/2000   25.0% | t 25.000 | ETA 5m 4s | step 0.23s | KE 59.2865 | drift -3.43% | fluid 25.9003 | solid 33.3862
  Impulse FP iterations last/mean/max 16/14.17/16
Step   600/2000   30.0% | t 30.000 | ETA 4m 42s | step 0.19s | KE 59.3466 | drift -3.33% | fluid 24.4518 | solid 34.8948
  Impulse FP iterations last/mean/max 14/14.09/16
Step   700/2000   35.0% | t 35.000 | ETA 4m 21s | step 0.19s | KE 59.8147 | drift -2.57% | fluid 25.6697 | solid 34.1450
  Impulse FP iterations last/mean/max 14/14.07/16
Step   800/2000   40.0% | t 40.000 | ETA 4m 0s | step 0.19s | KE 60.0197 | drift -2.24% | fluid 26.5031 | solid 33.5166
  Impulse FP iterations last/mean/max 13/14.06/16
Step   900/2000   45.0% | t 45.000 | ETA 3m 40s | step 0.20s | KE 60.2153 | drift -1.92% | fluid 27.0872 | solid 33.1281
  Impulse FP iterations last/mean/max 14/14.08/16
Step  1000/2000   50.0% | t 50.000 | ETA 3m 20s | step 0.19s | KE 60.4024 | drift -1.61% | fluid 26.4390 | solid 33.9634
  Impulse FP iterations last/mean/max 13/14.07/16
Step  1100/2000   55.0% | t 55.000 | ETA 3m 0s | step 0.20s | KE 60.5356 | drift -1.40% | fluid 26.3010 | solid 34.2346
  Impulse FP iterations last/mean/max 14/14.06/16
Step  1200/2000   60.0% | t 60.000 | ETA 2m 40s | step 0.21s | KE 60.5335 | drift -1.40% | fluid 26.7702 | solid 33.7633
  Impulse FP iterations last/mean/max 14/14.07/16
Step  1300/2000   65.0% | t 65.000 | ETA 2m 20s | step 0.18s | KE 60.5922 | drift -1.31% | fluid 25.5063 | solid 35.0859
  Impulse FP iterations last/mean/max 13/14.09/16
Step  1400/2000   70.0% | t 70.000 | ETA 2m 0s | step 0.20s | KE 60.7611 | drift -1.03% | fluid 27.3844 | solid 33.3767
  Impulse FP iterations last/mean/max 14/14.10/16
Step  1500/2000   75.0% | t 75.000 | ETA 1m 40s | step 0.21s | KE 60.5083 | drift -1.44% | fluid 26.0939 | solid 34.4144
  Impulse FP iterations last/mean/max 14/14.10/16
Step  1600/2000   80.0% | t 80.000 | ETA 1m 20s | step 0.20s | KE 60.6677 | drift -1.18% | fluid 26.2482 | solid 34.4195
  Impulse FP iterations last/mean/max 15/14.12/16
Step  1700/2000   85.0% | t 85.000 | ETA 1m 0s | step 0.19s | KE 60.6078 | drift -1.28% | fluid 26.6203 | solid 33.9875
  Impulse FP iterations last/mean/max 14/14.12/16
Step  1800/2000   90.0% | t 90.000 | ETA 40s | step 0.22s | KE 60.5890 | drift -1.31% | fluid 26.6248 | solid 33.9642
  Impulse FP iterations last/mean/max 15/14.11/16
Step  1900/2000   95.0% | t 95.000 | ETA 20s | step 0.20s | KE 60.8017 | drift -0.96% | fluid 27.2500 | solid 33.5517
  Impulse FP iterations last/mean/max 15/14.12/16
Solver finished successfully - good job!
Results saved successfully.

================== Run summary ==================
  Bodies:            2
  Triangles / nodes: 256 / 516
  Timesteps:         2000  (dt = 0.05)
  Simulated time:    0 -> 100
  First-step setup:  0.375 s
  Mean time/step:    0.1999 s  (excl. first step)
  Total wall time:   6m 39s
  Impulse FP iters last/mean/max: 14 / 14.111 / 16
  Approx impulse solves/step:     14.112
  Impulse start cache hits/direct: 1999 / 1
  Impulse global drift P/H:       2.357767e-8 / 3.917442e-2
  Impulse per-body max drift P/H: 4.490311e-8 / 1.095957e-2
  CPU cores:         256 available, 8 Rayon worker thread(s)
  Started:           2026-06-24 01:51:04
  Finished:          2026-06-24 01:57:44
  Output file:       /work/e643/e643/shared/multi_ellip/studies/two_body_paper_sweeps/runs/ellipsoid_1_0p8_0p6/ellipsoid_1_0p8_0p6_rho0p3_E1p5_sep5_run04_impulse_noproj/multiple_body_complete.dat
================================================
