
================ Simulation setup ================
  Run label:         /work/e643/e643/shared/multi_ellip/studies/departing_sphericity_sweep/runs/triaxial/homogeneous/triaxial_homogeneous_eps0p0003_rho1_E0p5_sep8_run07_impulse_noproj/
  Started:           2026-06-24 02:23:18
  Input file:        /work/e643/e643/shared/multi_ellip/studies/departing_sphericity_sweep/runs/triaxial/homogeneous/triaxial_homogeneous_eps0p0003_rho1_E0p5_sep8_run07_impulse_noproj/input.txt
  Output file:       /work/e643/e643/shared/multi_ellip/studies/departing_sphericity_sweep/runs/triaxial/homogeneous/triaxial_homogeneous_eps0p0003_rho1_E0p5_sep8_run07_impulse_noproj/multiple_body_complete.dat
  Bodies:            2
  Fluid density:     1
  Mesh:              ndiv 2 -> 256 triangles / 516 nodes
  Simulated time:    0 -> 100  (dt = 0.05, ~2000 steps)
  Output cadence:    every 1 step(s)
  Output rows:       ~2001
  Progress cadence:  every 100 step(s)
  CPU cores:         256 available, 8 Rayon worker thread(s)
  Strong coupling:   disabled
  Impulse scheme:    enabled
  Hamiltonian step:  disabled
  Hamiltonian midpt: disabled
  Variational step:  disabled
  Energy projection: disabled
  Projection particular metric: Euclidean
  Fluid KE gradient: disabled  (eps = 0.001, scale = 1, linear = 1, angular = 1)
  Fluid KE discrete gradient: disabled
  Impulse pair metric correction: disabled  (mode = pair discrete-gradient, cutoff = all pairs, inner/outer = 0/0, eps = 0.001, linear scale = 1, angular scale = 0)
  Impulse metric correction: disabled  (internal load constraint = disabled)
  Impulse variational defect probe: disabled
  Impulse quadratic pressure: disabled  (scale = 1)
  Added-mass stab:   disabled
  Exact BEM geometry: disabled
  Exact singular BEM: disabled
  Legacy singular SLP diagnostic: disabled
  Phi-dot blend:     0 (off)

  Solver guidance:
    - Strong coupling: use for stiff close-coupled runs; slower but more implicit.
    - Impulse scheme: use when impulse/momentum conservation or KE drift is the focus. Recommended.
    - Added-mass stab: use for higher mesh counts (ndiv > 3) to preserve stability - deprecated.
================================================
Solver starting - good luck!

Initial state:
  Body  1
    density:          1.000000
    shape axes ratio: (1.000000, 0.999700, 0.999400)
    initial KE ratio: 0.500000
    position:         (-4.000000, 0.000000, 0.000000)
    velocity:         (-4.595936, 0.985433, 3.081133)
    angular velocity: (2.700968, -2.603693, 5.040236)
    orientation:      (w=-0.780502, i=-0.621322, j=-0.063193, k=0.027986)
  Body  2
    density:          1.000000
    shape axes ratio: (1.000000, 0.999700, 0.999400)
    initial KE ratio: 0.500000
    position:         (4.000000, 0.000000, 0.000000)
    velocity:         (-4.595342, 0.985306, 3.080735)
    angular velocity: (5.148180, 1.528816, -3.261499)
    orientation:      (w=0.167591, i=0.349694, j=-0.778424, k=0.493643)

Preparing first step: implicit scheme, no bootstrap passes required.
First step may take longer than later steps.

First step completed in 0.260 s.

Step   100/2000    5.0% | t 5.000 | ETA 3m 5s | step 0.10s | KE 274.4626 | drift +1.43% | fluid 72.1532 | solid 202.3094
  Impulse FP iterations last/mean/max 7/7.00/7
Step   200/2000   10.0% | t 10.000 | ETA 2m 54s | step 0.10s | KE 281.2466 | drift +3.94% | fluid 72.1461 | solid 209.1006
  Impulse FP iterations last/mean/max 7/7.00/7
Step   300/2000   15.0% | t 15.000 | ETA 2m 45s | step 0.09s | KE 290.9464 | drift +7.53% | fluid 72.1475 | solid 218.7989
  Impulse FP iterations last/mean/max 7/7.00/7
Step   400/2000   20.0% | t 20.000 | ETA 2m 35s | step 0.10s | KE 303.5740 | drift +12.19% | fluid 72.1502 | solid 231.4237
  Impulse FP iterations last/mean/max 7/7.00/7
Step   500/2000   25.0% | t 25.000 | ETA 2m 25s | step 0.10s | KE 319.1376 | drift +17.94% | fluid 72.1479 | solid 246.9896
  Impulse FP iterations last/mean/max 7/7.00/7
Step   600/2000   30.0% | t 30.000 | ETA 2m 16s | step 0.10s | KE 337.6335 | drift +24.78% | fluid 72.1514 | solid 265.4821
  Impulse FP iterations last/mean/max 7/7.00/7
Step   700/2000   35.0% | t 35.000 | ETA 2m 6s | step 0.09s | KE 359.0606 | drift +32.70% | fluid 72.1465 | solid 286.9141
  Impulse FP iterations last/mean/max 7/7.00/7
Step   800/2000   40.0% | t 40.000 | ETA 1m 57s | step 0.10s | KE 383.4042 | drift +41.70% | fluid 72.1464 | solid 311.2578
  Impulse FP iterations last/mean/max 7/7.00/7
Step   900/2000   45.0% | t 45.000 | ETA 1m 47s | step 0.10s | KE 410.6493 | drift +51.76% | fluid 72.1581 | solid 338.4913
  Impulse FP iterations last/mean/max 7/7.00/7
Step  1000/2000   50.0% | t 50.000 | ETA 1m 37s | step 0.09s | KE 440.7890 | drift +62.90% | fluid 72.1596 | solid 368.6294
  Impulse FP iterations last/mean/max 7/7.00/7
Step  1100/2000   55.0% | t 55.000 | ETA 1m 27s | step 0.09s | KE 473.8060 | drift +75.11% | fluid 72.1578 | solid 401.6481
  Impulse FP iterations last/mean/max 7/7.00/7
Step  1200/2000   60.0% | t 60.000 | ETA 1m 18s | step 0.10s | KE 509.6845 | drift +88.37% | fluid 72.1555 | solid 437.5290
  Impulse FP iterations last/mean/max 7/7.00/8
Step  1300/2000   65.0% | t 65.000 | ETA 1m 8s | step 0.11s | KE 548.4076 | drift +102.68% | fluid 72.1557 | solid 476.2520
  Impulse FP iterations last/mean/max 7/7.00/8
Step  1400/2000   70.0% | t 70.000 | ETA 58s | step 0.09s | KE 589.9627 | drift +118.03% | fluid 72.1537 | solid 517.8090
  Impulse FP iterations last/mean/max 7/7.01/8
Step  1500/2000   75.0% | t 75.000 | ETA 48s | step 0.09s | KE 634.3269 | drift +134.43% | fluid 72.1583 | solid 562.1686
  Impulse FP iterations last/mean/max 7/7.01/8
Step  1600/2000   80.0% | t 80.000 | ETA 38s | step 0.08s | KE 681.5037 | drift +151.87% | fluid 72.1498 | solid 609.3539
  Impulse FP iterations last/mean/max 7/7.02/8
Step  1700/2000   85.0% | t 85.000 | ETA 28s | step 0.08s | KE 731.4452 | drift +170.32% | fluid 72.1596 | solid 659.2856
  Impulse FP iterations last/mean/max 7/7.03/8
Step  1800/2000   90.0% | t 90.000 | ETA 19s | step 0.07s | KE 784.1711 | drift +189.81% | fluid 72.1556 | solid 712.0155
  Impulse FP iterations last/mean/max 7/7.04/8
Step  1900/2000   95.0% | t 95.000 | ETA 9s | step 0.07s | KE 839.6364 | drift +210.31% | fluid 72.1609 | solid 767.4756
  Impulse FP iterations last/mean/max 8/7.05/8
Solver finished successfully - good job!
Results saved successfully.

================== Run summary ==================
  Bodies:            2
  Triangles / nodes: 256 / 516
  Timesteps:         2000  (dt = 0.05)
  Simulated time:    0 -> 100
  First-step setup:  0.260 s
  Mean time/step:    0.0928 s  (excl. first step)
  Total wall time:   3m 5s
  Impulse FP iters last/mean/max: 7 / 7.062 / 8
  Approx impulse solves/step:     7.062
  Impulse start cache hits/direct: 1999 / 1
  Impulse global drift P/H:       4.219741e-9 / 7.077692e-2
  Impulse per-body max drift P/H: 7.587001e-9 / 8.460452e-3
  CPU cores:         256 available, 8 Rayon worker thread(s)
  Started:           2026-06-24 02:23:18
  Finished:          2026-06-24 02:26:25
  Output file:       /work/e643/e643/shared/multi_ellip/studies/departing_sphericity_sweep/runs/triaxial/homogeneous/triaxial_homogeneous_eps0p0003_rho1_E0p5_sep8_run07_impulse_noproj/multiple_body_complete.dat
================================================
