
================ Simulation setup ================
  Run label:         /work/e643/e643/shared/multi_ellip/studies/departing_sphericity_sweep/runs/triaxial/heterogeneous_sphere/triaxial_heterogeneous_sphere_eps0p01_rho1_E0p5_sep8_run02_impulse_noproj/
  Started:           2026-06-24 02:43:22
  Input file:        /work/e643/e643/shared/multi_ellip/studies/departing_sphericity_sweep/runs/triaxial/heterogeneous_sphere/triaxial_heterogeneous_sphere_eps0p01_rho1_E0p5_sep8_run02_impulse_noproj/input.txt
  Output file:       /work/e643/e643/shared/multi_ellip/studies/departing_sphericity_sweep/runs/triaxial/heterogeneous_sphere/triaxial_heterogeneous_sphere_eps0p01_rho1_E0p5_sep8_run02_impulse_noproj/multiple_body_complete.dat
  Bodies:            2
  Fluid density:     1
  Mesh:              ndiv 2 -> 256 triangles / 516 nodes
  Simulated time:    0 -> 100  (dt = 0.05, ~2000 steps)
  Output cadence:    every 1 step(s)
  Output rows:       ~2001
  Progress cadence:  every 100 step(s)
  CPU cores:         256 available, 8 Rayon worker thread(s)
  Strong coupling:   disabled
  Impulse scheme:    enabled
  Hamiltonian step:  disabled
  Hamiltonian midpt: disabled
  Variational step:  disabled
  Energy projection: disabled
  Projection particular metric: Euclidean
  Fluid KE gradient: disabled  (eps = 0.001, scale = 1, linear = 1, angular = 1)
  Fluid KE discrete gradient: disabled
  Impulse pair metric correction: disabled  (mode = pair discrete-gradient, cutoff = all pairs, inner/outer = 0/0, eps = 0.001, linear scale = 1, angular scale = 0)
  Impulse metric correction: disabled  (internal load constraint = disabled)
  Impulse variational defect probe: disabled
  Impulse quadratic pressure: disabled  (scale = 1)
  Added-mass stab:   disabled
  Exact BEM geometry: disabled
  Exact singular BEM: disabled
  Legacy singular SLP diagnostic: disabled
  Phi-dot blend:     0 (off)

  Solver guidance:
    - Strong coupling: use for stiff close-coupled runs; slower but more implicit.
    - Impulse scheme: use when impulse/momentum conservation or KE drift is the focus. Recommended.
    - Added-mass stab: use for higher mesh counts (ndiv > 3) to preserve stability - deprecated.
================================================
Solver starting - good luck!

Initial state:
  Body  1
    density:          1.000000
    shape axes ratio: (1.000000, 0.990099, 0.980296)
    initial KE ratio: 0.500000
    position:         (-4.000000, 0.000000, 0.000000)
    velocity:         (-4.743280, -1.041940, -2.856243)
    angular velocity: (-2.867059, 1.844061, -5.278052)
    orientation:      (w=0.107204, i=0.587788, j=0.501208, k=-0.625941)
  Body  2
    density:          1.000000
    shape axes ratio: (1.000000, 1.000000, 1.000000)
    initial KE ratio: 0.500000
    position:         (4.000000, 0.000000, 0.000000)
    velocity:         (-4.731330, -1.039315, -2.849047)
    angular velocity: (4.751794, -0.325219, -4.097939)
    orientation:      (w=0.140309, i=0.071180, j=-0.646404, k=0.746598)

Preparing first step: implicit scheme, no bootstrap passes required.
First step may take longer than later steps.

First step completed in 0.267 s.

Step   100/2000    5.0% | t 5.000 | ETA 3m 32s | step 0.12s | KE 277.7199 | drift +2.49% | fluid 72.5167 | solid 205.2033
  Impulse FP iterations last/mean/max 8/7.99/8
Step   200/2000   10.0% | t 10.000 | ETA 3m 22s | step 0.11s | KE 283.1880 | drift +4.51% | fluid 72.4414 | solid 210.7466
  Impulse FP iterations last/mean/max 8/8.00/8
Step   300/2000   15.0% | t 15.000 | ETA 3m 10s | step 0.12s | KE 286.6968 | drift +5.80% | fluid 72.3615 | solid 214.3353
  Impulse FP iterations last/mean/max 8/8.00/8
Step   400/2000   20.0% | t 20.000 | ETA 2m 59s | step 0.11s | KE 288.2101 | drift +6.36% | fluid 72.3904 | solid 215.8196
  Impulse FP iterations last/mean/max 8/8.00/8
Step   500/2000   25.0% | t 25.000 | ETA 2m 48s | step 0.10s | KE 288.3755 | drift +6.42% | fluid 72.3997 | solid 215.9758
  Impulse FP iterations last/mean/max 8/8.00/8
Step   600/2000   30.0% | t 30.000 | ETA 2m 34s | step 0.09s | KE 288.6275 | drift +6.51% | fluid 72.3279 | solid 216.2996
  Impulse FP iterations last/mean/max 8/8.00/8
Step   700/2000   35.0% | t 35.000 | ETA 2m 21s | step 0.09s | KE 290.8138 | drift +7.32% | fluid 72.3860 | solid 218.4278
  Impulse FP iterations last/mean/max 8/8.00/8
Step   800/2000   40.0% | t 40.000 | ETA 2m 9s | step 0.10s | KE 295.8381 | drift +9.17% | fluid 72.4327 | solid 223.4054
  Impulse FP iterations last/mean/max 8/8.00/8
Step   900/2000   45.0% | t 45.000 | ETA 1m 58s | step 0.10s | KE 302.8253 | drift +11.75% | fluid 72.3467 | solid 230.4786
  Impulse FP iterations last/mean/max 8/8.00/8
Step  1000/2000   50.0% | t 50.000 | ETA 1m 48s | step 0.11s | KE 310.1812 | drift +14.47% | fluid 72.4145 | solid 237.7667
  Impulse FP iterations last/mean/max 8/8.00/8
Step  1100/2000   55.0% | t 55.000 | ETA 1m 38s | step 0.11s | KE 316.6596 | drift +16.86% | fluid 72.4414 | solid 244.2182
  Impulse FP iterations last/mean/max 8/8.00/8
Step  1200/2000   60.0% | t 60.000 | ETA 1m 27s | step 0.11s | KE 321.5831 | drift +18.68% | fluid 72.5271 | solid 249.0560
  Impulse FP iterations last/mean/max 8/8.00/8
Step  1300/2000   65.0% | t 65.000 | ETA 1m 16s | step 0.11s | KE 324.8371 | drift +19.88% | fluid 72.5027 | solid 252.3344
  Impulse FP iterations last/mean/max 8/8.00/8
Step  1400/2000   70.0% | t 70.000 | ETA 1m 5s | step 0.12s | KE 326.7912 | drift +20.60% | fluid 72.5076 | solid 254.2837
  Impulse FP iterations last/mean/max 8/8.00/8
Step  1500/2000   75.0% | t 75.000 | ETA 54s | step 0.12s | KE 328.3144 | drift +21.16% | fluid 72.4004 | solid 255.9141
  Impulse FP iterations last/mean/max 8/8.00/8
Step  1600/2000   80.0% | t 80.000 | ETA 44s | step 0.11s | KE 330.4764 | drift +21.96% | fluid 72.4704 | solid 258.0060
  Impulse FP iterations last/mean/max 8/8.00/8
Step  1700/2000   85.0% | t 85.000 | ETA 33s | step 0.11s | KE 333.9924 | drift +23.26% | fluid 72.3635 | solid 261.6289
  Impulse FP iterations last/mean/max 8/8.00/8
Step  1800/2000   90.0% | t 90.000 | ETA 21s | step 0.09s | KE 338.6897 | drift +24.99% | fluid 72.4448 | solid 266.2449
  Impulse FP iterations last/mean/max 8/8.00/8
Step  1900/2000   95.0% | t 95.000 | ETA 10s | step 0.08s | KE 343.8169 | drift +26.88% | fluid 72.4777 | solid 271.3392
  Impulse FP iterations last/mean/max 8/8.00/8
Solver finished successfully - good job!
Results saved successfully.

================== Run summary ==================
  Bodies:            2
  Triangles / nodes: 256 / 516
  Timesteps:         2000  (dt = 0.05)
  Simulated time:    0 -> 100
  First-step setup:  0.267 s
  Mean time/step:    0.1072 s  (excl. first step)
  Total wall time:   3m 34s
  Impulse FP iters last/mean/max: 8 / 7.996 / 8
  Approx impulse solves/step:     7.997
  Impulse start cache hits/direct: 1999 / 1
  Impulse global drift P/H:       6.994825e-10 / 2.022479e-2
  Impulse per-body max drift P/H: 1.027557e-9 / 4.057072e-3
  CPU cores:         256 available, 8 Rayon worker thread(s)
  Started:           2026-06-24 02:43:22
  Finished:          2026-06-24 02:46:57
  Output file:       /work/e643/e643/shared/multi_ellip/studies/departing_sphericity_sweep/runs/triaxial/heterogeneous_sphere/triaxial_heterogeneous_sphere_eps0p01_rho1_E0p5_sep8_run02_impulse_noproj/multiple_body_complete.dat
================================================
