
================ Simulation setup ================
  Run label:         /work/e643/e643/shared/multi_ellip/studies/two_body_paper_sweeps/runs/ellipsoid_1_0p8_0p6/ellipsoid_1_0p8_0p6_rho10_E1p5_sep8_run05_impulse_noproj/
  Started:           2026-06-24 01:21:15
  Input file:        /work/e643/e643/shared/multi_ellip/studies/two_body_paper_sweeps/runs/ellipsoid_1_0p8_0p6/ellipsoid_1_0p8_0p6_rho10_E1p5_sep8_run05_impulse_noproj/input.txt
  Output file:       /work/e643/e643/shared/multi_ellip/studies/two_body_paper_sweeps/runs/ellipsoid_1_0p8_0p6/ellipsoid_1_0p8_0p6_rho10_E1p5_sep8_run05_impulse_noproj/multiple_body_complete.dat
  Bodies:            2
  Fluid density:     1
  Mesh:              ndiv 2 -> 256 triangles / 516 nodes
  Simulated time:    0 -> 100  (dt = 0.05, ~2000 steps)
  Output cadence:    every 1 step(s)
  Output rows:       ~2001
  Progress cadence:  every 100 step(s)
  CPU cores:         256 available, 8 Rayon worker thread(s)
  Strong coupling:   disabled
  Impulse scheme:    enabled
  Hamiltonian step:  disabled
  Hamiltonian midpt: disabled
  Variational step:  disabled
  Energy projection: disabled
  Projection particular metric: Euclidean
  Fluid KE gradient: disabled  (eps = 0.001, scale = 1, linear = 1, angular = 1)
  Fluid KE discrete gradient: disabled
  Impulse pair metric correction: disabled  (mode = pair discrete-gradient, cutoff = all pairs, inner/outer = 0/0, eps = 0.001, linear scale = 1, angular scale = 0)
  Impulse metric correction: disabled  (internal load constraint = disabled)
  Impulse variational defect probe: disabled
  Impulse quadratic pressure: disabled  (scale = 1)
  Added-mass stab:   disabled
  Exact BEM geometry: disabled
  Exact singular BEM: disabled
  Legacy singular SLP diagnostic: disabled
  Phi-dot blend:     0 (off)

  Solver guidance:
    - Strong coupling: use for stiff close-coupled runs; slower but more implicit.
    - Impulse scheme: use when impulse/momentum conservation or KE drift is the focus. Recommended.
    - Added-mass stab: use for higher mesh counts (ndiv > 3) to preserve stability - deprecated.
================================================
Solver starting - good luck!

Initial state:
  Body  1
    density:          10.000000
    shape axes ratio: (1.000000, 0.800000, 0.600000)
    initial KE ratio: 1.500000
    position:         (-4.000000, 0.000000, 0.000000)
    velocity:         (-2.230637, -0.248299, -2.697206)
    angular velocity: (-3.472695, 1.219188, -5.092385)
    orientation:      (w=0.775894, i=-0.387543, j=-0.202160, k=-0.454896)
  Body  2
    density:          10.000000
    shape axes ratio: (1.000000, 0.800000, 0.600000)
    initial KE ratio: 1.500000
    position:         (4.000000, 0.000000, 0.000000)
    velocity:         (-2.370192, -0.263833, -2.865950)
    angular velocity: (0.601580, -1.461137, 6.081250)
    orientation:      (w=-0.620712, i=-0.262925, j=-0.707663, k=-0.211661)

Preparing first step: implicit scheme, no bootstrap passes required.
First step may take longer than later steps.

First step completed in 0.219 s.

Step   100/2000    5.0% | t 5.000 | ETA 2m 42s | step 0.10s | KE 1163.9804 | drift -0.11% | fluid 30.8816 | solid 1133.0988
  Impulse FP iterations last/mean/max 7/7.01/8
Step   200/2000   10.0% | t 10.000 | ETA 2m 48s | step 0.09s | KE 1160.3253 | drift -0.43% | fluid 36.2169 | solid 1124.1083
  Impulse FP iterations last/mean/max 7/7.05/8
Step   300/2000   15.0% | t 15.000 | ETA 2m 42s | step 0.09s | KE 1154.8550 | drift -0.90% | fluid 28.9642 | solid 1125.8909
  Impulse FP iterations last/mean/max 7/7.06/8
Step   400/2000   20.0% | t 20.000 | ETA 2m 31s | step 0.09s | KE 1148.4448 | drift -1.45% | fluid 35.9489 | solid 1112.4959
  Impulse FP iterations last/mean/max 7/7.05/8
Step   500/2000   25.0% | t 25.000 | ETA 2m 20s | step 0.10s | KE 1147.8188 | drift -1.50% | fluid 28.9572 | solid 1118.8616
  Impulse FP iterations last/mean/max 8/7.06/8
Step   600/2000   30.0% | t 30.000 | ETA 2m 12s | step 0.09s | KE 1153.1918 | drift -1.04% | fluid 36.6040 | solid 1116.5878
  Impulse FP iterations last/mean/max 7/7.07/8
Step   700/2000   35.0% | t 35.000 | ETA 2m 4s | step 0.10s | KE 1157.8132 | drift -0.64% | fluid 27.5301 | solid 1130.2832
  Impulse FP iterations last/mean/max 7/7.07/8
Step   800/2000   40.0% | t 40.000 | ETA 1m 56s | step 0.12s | KE 1156.3158 | drift -0.77% | fluid 37.9434 | solid 1118.3724
  Impulse FP iterations last/mean/max 8/7.07/8
Step   900/2000   45.0% | t 45.000 | ETA 1m 47s | step 0.10s | KE 1151.3040 | drift -1.20% | fluid 28.5487 | solid 1122.7552
  Impulse FP iterations last/mean/max 7/7.07/8
Step  1000/2000   50.0% | t 50.000 | ETA 1m 37s | step 0.12s | KE 1146.9799 | drift -1.57% | fluid 28.7110 | solid 1118.2689
  Impulse FP iterations last/mean/max 8/7.07/8
Step  1100/2000   55.0% | t 55.000 | ETA 1m 28s | step 0.09s | KE 1143.7570 | drift -1.85% | fluid 34.2565 | solid 1109.5005
  Impulse FP iterations last/mean/max 7/7.07/8
Step  1200/2000   60.0% | t 60.000 | ETA 1m 18s | step 0.10s | KE 1141.7432 | drift -2.02% | fluid 29.5965 | solid 1112.1467
  Impulse FP iterations last/mean/max 7/7.07/8
Step  1300/2000   65.0% | t 65.000 | ETA 1m 8s | step 0.10s | KE 1140.8950 | drift -2.09% | fluid 28.9981 | solid 1111.8969
  Impulse FP iterations last/mean/max 7/7.06/8
Step  1400/2000   70.0% | t 70.000 | ETA 59s | step 0.10s | KE 1140.6205 | drift -2.12% | fluid 33.3122 | solid 1107.3083
  Impulse FP iterations last/mean/max 7/7.06/8
Step  1500/2000   75.0% | t 75.000 | ETA 49s | step 0.10s | KE 1140.7572 | drift -2.11% | fluid 31.1985 | solid 1109.5587
  Impulse FP iterations last/mean/max 7/7.06/8
Step  1600/2000   80.0% | t 80.000 | ETA 39s | step 0.09s | KE 1141.1336 | drift -2.07% | fluid 28.6609 | solid 1112.4728
  Impulse FP iterations last/mean/max 7/7.06/8
Step  1700/2000   85.0% | t 85.000 | ETA 29s | step 0.10s | KE 1141.4273 | drift -2.05% | fluid 32.1103 | solid 1109.3170
  Impulse FP iterations last/mean/max 7/7.06/8
Step  1800/2000   90.0% | t 90.000 | ETA 19s | step 0.10s | KE 1141.6682 | drift -2.03% | fluid 33.0833 | solid 1108.5849
  Impulse FP iterations last/mean/max 7/7.06/8
Step  1900/2000   95.0% | t 95.000 | ETA 9s | step 0.10s | KE 1141.9145 | drift -2.01% | fluid 28.7305 | solid 1113.1840
  Impulse FP iterations last/mean/max 7/7.06/8
Solver finished successfully - good job!
Results saved successfully.

================== Run summary ==================
  Bodies:            2
  Triangles / nodes: 256 / 516
  Timesteps:         2000  (dt = 0.05)
  Simulated time:    0 -> 100
  First-step setup:  0.219 s
  Mean time/step:    0.0992 s  (excl. first step)
  Total wall time:   3m 18s
  Impulse FP iters last/mean/max: 7 / 7.059 / 8
  Approx impulse solves/step:     7.060
  Impulse start cache hits/direct: 1999 / 1
  Impulse global drift P/H:       1.559854e-9 / 4.002918e-2
  Impulse per-body max drift P/H: 2.141995e-9 / 3.796027e-3
  CPU cores:         256 available, 8 Rayon worker thread(s)
  Started:           2026-06-24 01:21:15
  Finished:          2026-06-24 01:24:34
  Output file:       /work/e643/e643/shared/multi_ellip/studies/two_body_paper_sweeps/runs/ellipsoid_1_0p8_0p6/ellipsoid_1_0p8_0p6_rho10_E1p5_sep8_run05_impulse_noproj/multiple_body_complete.dat
================================================
