
================ Simulation setup ================
  Run label:         /work/e643/e643/shared/multi_ellip/studies/departing_sphericity_sweep/runs/triaxial/heterogeneous_aspherical/triaxial_heterogeneous_aspherical_eps1_rho1_E0p5_sep8_run04_impulse_noproj/
  Started:           2026-06-24 03:11:09
  Input file:        /work/e643/e643/shared/multi_ellip/studies/departing_sphericity_sweep/runs/triaxial/heterogeneous_aspherical/triaxial_heterogeneous_aspherical_eps1_rho1_E0p5_sep8_run04_impulse_noproj/input.txt
  Output file:       /work/e643/e643/shared/multi_ellip/studies/departing_sphericity_sweep/runs/triaxial/heterogeneous_aspherical/triaxial_heterogeneous_aspherical_eps1_rho1_E0p5_sep8_run04_impulse_noproj/multiple_body_complete.dat
  Bodies:            2
  Fluid density:     1
  Mesh:              ndiv 2 -> 256 triangles / 516 nodes
  Simulated time:    0 -> 100  (dt = 0.05, ~2000 steps)
  Output cadence:    every 1 step(s)
  Output rows:       ~2001
  Progress cadence:  every 100 step(s)
  CPU cores:         256 available, 8 Rayon worker thread(s)
  Strong coupling:   disabled
  Impulse scheme:    enabled
  Hamiltonian step:  disabled
  Hamiltonian midpt: disabled
  Variational step:  disabled
  Energy projection: disabled
  Projection particular metric: Euclidean
  Fluid KE gradient: disabled  (eps = 0.001, scale = 1, linear = 1, angular = 1)
  Fluid KE discrete gradient: disabled
  Impulse pair metric correction: disabled  (mode = pair discrete-gradient, cutoff = all pairs, inner/outer = 0/0, eps = 0.001, linear scale = 1, angular scale = 0)
  Impulse metric correction: disabled  (internal load constraint = disabled)
  Impulse variational defect probe: disabled
  Impulse quadratic pressure: disabled  (scale = 1)
  Added-mass stab:   disabled
  Exact BEM geometry: disabled
  Exact singular BEM: disabled
  Legacy singular SLP diagnostic: disabled
  Phi-dot blend:     0 (off)

  Solver guidance:
    - Strong coupling: use for stiff close-coupled runs; slower but more implicit.
    - Impulse scheme: use when impulse/momentum conservation or KE drift is the focus. Recommended.
    - Added-mass stab: use for higher mesh counts (ndiv > 3) to preserve stability - deprecated.
================================================
Solver starting - good luck!

Initial state:
  Body  1
    density:          1.000000
    shape axes ratio: (1.000000, 0.500000, 0.250000)
    initial KE ratio: 0.500000
    position:         (-4.000000, 0.000000, 0.000000)
    velocity:         (-2.392603, 4.868281, 0.896900)
    angular velocity: (-5.628526, 2.006030, 1.942669)
    orientation:      (w=-0.177917, i=-0.441461, j=0.531352, k=0.700802)
  Body  2
    density:          1.000000
    shape axes ratio: (1.000000, 0.500000, 0.250000)
    initial KE ratio: 0.500000
    position:         (4.000000, 0.000000, 0.000000)
    velocity:         (-3.830048, 7.793081, 1.435745)
    angular velocity: (0.992313, 0.238552, -6.199744)
    orientation:      (w=-0.841429, i=0.100338, j=-0.221104, k=-0.482745)

Preparing first step: implicit scheme, no bootstrap passes required.
First step may take longer than later steps.

First step completed in 0.301 s.

Step   100/2000    5.0% | t 5.000 | ETA 5m 21s | step 0.15s | KE 572.7985 | drift -0.37% | fluid 210.7381 | solid 362.0604
  Impulse FP iterations last/mean/max 15/16.15/18
Step   200/2000   10.0% | t 10.000 | ETA 4m 56s | step 0.16s | KE 576.8515 | drift +0.34% | fluid 207.5151 | solid 369.3364
  Impulse FP iterations last/mean/max 16/16.18/18
Step   300/2000   15.0% | t 15.000 | ETA 4m 37s | step 0.16s | KE 576.6433 | drift +0.30% | fluid 213.9454 | solid 362.6978
  Impulse FP iterations last/mean/max 17/16.20/18
Step   400/2000   20.0% | t 20.000 | ETA 4m 19s | step 0.16s | KE 573.6232 | drift -0.22% | fluid 223.0134 | solid 350.6098
  Impulse FP iterations last/mean/max 16/16.21/19
Step   500/2000   25.0% | t 25.000 | ETA 4m 2s | step 0.16s | KE 575.8979 | drift +0.17% | fluid 211.4917 | solid 364.4062
  Impulse FP iterations last/mean/max 17/16.21/19
Step   600/2000   30.0% | t 30.000 | ETA 3m 44s | step 0.16s | KE 572.5955 | drift -0.40% | fluid 230.8119 | solid 341.7836
  Impulse FP iterations last/mean/max 17/16.20/19
Step   700/2000   35.0% | t 35.000 | ETA 3m 27s | step 0.15s | KE 573.3990 | drift -0.26% | fluid 197.0022 | solid 376.3968
  Impulse FP iterations last/mean/max 15/16.20/19
Step   800/2000   40.0% | t 40.000 | ETA 3m 11s | step 0.16s | KE 572.2595 | drift -0.46% | fluid 212.5650 | solid 359.6945
  Impulse FP iterations last/mean/max 15/16.20/19
Step   900/2000   45.0% | t 45.000 | ETA 2m 56s | step 0.18s | KE 572.3027 | drift -0.45% | fluid 228.5228 | solid 343.7799
  Impulse FP iterations last/mean/max 17/16.19/19
Step  1000/2000   50.0% | t 50.000 | ETA 2m 40s | step 0.16s | KE 573.8890 | drift -0.18% | fluid 213.1925 | solid 360.6965
  Impulse FP iterations last/mean/max 16/16.20/19
Step  1100/2000   55.0% | t 55.000 | ETA 2m 24s | step 0.17s | KE 574.5758 | drift -0.06% | fluid 209.6797 | solid 364.8961
  Impulse FP iterations last/mean/max 17/16.19/19
Step  1200/2000   60.0% | t 60.000 | ETA 2m 8s | step 0.16s | KE 576.0078 | drift +0.19% | fluid 214.5064 | solid 361.5014
  Impulse FP iterations last/mean/max 16/16.18/19
Step  1300/2000   65.0% | t 65.000 | ETA 1m 52s | step 0.19s | KE 576.4851 | drift +0.27% | fluid 199.1207 | solid 377.3644
  Impulse FP iterations last/mean/max 17/16.19/19
Step  1400/2000   70.0% | t 70.000 | ETA 1m 36s | step 0.16s | KE 571.2012 | drift -0.65% | fluid 227.6389 | solid 343.5624
  Impulse FP iterations last/mean/max 16/16.19/19
Step  1500/2000   75.0% | t 75.000 | ETA 1m 20s | step 0.17s | KE 575.0539 | drift +0.02% | fluid 213.2800 | solid 361.7739
  Impulse FP iterations last/mean/max 17/16.18/19
Step  1600/2000   80.0% | t 80.000 | ETA 1m 4s | step 0.16s | KE 573.2731 | drift -0.29% | fluid 217.5084 | solid 355.7646
  Impulse FP iterations last/mean/max 16/16.18/19
Step  1700/2000   85.0% | t 85.000 | ETA 48s | step 0.15s | KE 573.9600 | drift -0.17% | fluid 201.8899 | solid 372.0701
  Impulse FP iterations last/mean/max 15/16.18/19
Step  1800/2000   90.0% | t 90.000 | ETA 32s | step 0.17s | KE 574.0198 | drift -0.16% | fluid 215.4043 | solid 358.6154
  Impulse FP iterations last/mean/max 18/16.18/19
Step  1900/2000   95.0% | t 95.000 | ETA 16s | step 0.15s | KE 573.0384 | drift -0.33% | fluid 216.4175 | solid 356.6209
  Impulse FP iterations last/mean/max 16/16.18/19
Solver finished successfully - good job!
Results saved successfully.

================== Run summary ==================
  Bodies:            2
  Triangles / nodes: 256 / 516
  Timesteps:         2000  (dt = 0.05)
  Simulated time:    0 -> 100
  First-step setup:  0.301 s
  Mean time/step:    0.1594 s  (excl. first step)
  Total wall time:   5m 18s
  Impulse FP iters last/mean/max: 15 / 16.175 / 19
  Approx impulse solves/step:     16.176
  Impulse start cache hits/direct: 1999 / 1
  Impulse global drift P/H:       5.456903e-9 / 4.744335e-2
  Impulse per-body max drift P/H: 7.131096e-9 / 2.493440e-2
  CPU cores:         256 available, 8 Rayon worker thread(s)
  Started:           2026-06-24 03:11:09
  Finished:          2026-06-24 03:16:28
  Output file:       /work/e643/e643/shared/multi_ellip/studies/departing_sphericity_sweep/runs/triaxial/heterogeneous_aspherical/triaxial_heterogeneous_aspherical_eps1_rho1_E0p5_sep8_run04_impulse_noproj/multiple_body_complete.dat
================================================
