
================ Simulation setup ================
  Run label:         /work/e643/e643/shared/multi_ellip/studies/departing_sphericity_sweep/runs/spheroid_prolate/homogeneous/spheroid_prolate_homogeneous_eps0p01_rho1_E0p5_sep8_run09_impulse_noproj/
  Started:           2026-06-24 02:26:40
  Input file:        /work/e643/e643/shared/multi_ellip/studies/departing_sphericity_sweep/runs/spheroid_prolate/homogeneous/spheroid_prolate_homogeneous_eps0p01_rho1_E0p5_sep8_run09_impulse_noproj/input.txt
  Output file:       /work/e643/e643/shared/multi_ellip/studies/departing_sphericity_sweep/runs/spheroid_prolate/homogeneous/spheroid_prolate_homogeneous_eps0p01_rho1_E0p5_sep8_run09_impulse_noproj/multiple_body_complete.dat
  Bodies:            2
  Fluid density:     1
  Mesh:              ndiv 2 -> 256 triangles / 516 nodes
  Simulated time:    0 -> 100  (dt = 0.05, ~2000 steps)
  Output cadence:    every 1 step(s)
  Output rows:       ~2001
  Progress cadence:  every 100 step(s)
  CPU cores:         256 available, 8 Rayon worker thread(s)
  Strong coupling:   disabled
  Impulse scheme:    enabled
  Hamiltonian step:  disabled
  Hamiltonian midpt: disabled
  Variational step:  disabled
  Energy projection: disabled
  Projection particular metric: Euclidean
  Fluid KE gradient: disabled  (eps = 0.001, scale = 1, linear = 1, angular = 1)
  Fluid KE discrete gradient: disabled
  Impulse pair metric correction: disabled  (mode = pair discrete-gradient, cutoff = all pairs, inner/outer = 0/0, eps = 0.001, linear scale = 1, angular scale = 0)
  Impulse metric correction: disabled  (internal load constraint = disabled)
  Impulse variational defect probe: disabled
  Impulse quadratic pressure: disabled  (scale = 1)
  Added-mass stab:   disabled
  Exact BEM geometry: disabled
  Exact singular BEM: disabled
  Legacy singular SLP diagnostic: disabled
  Phi-dot blend:     0 (off)

  Solver guidance:
    - Strong coupling: use for stiff close-coupled runs; slower but more implicit.
    - Impulse scheme: use when impulse/momentum conservation or KE drift is the focus. Recommended.
    - Added-mass stab: use for higher mesh counts (ndiv > 3) to preserve stability - deprecated.
================================================
Solver starting - good luck!

Initial state:
  Body  1
    density:          1.000000
    shape axes ratio: (1.000000, 0.970590, 0.970590)
    initial KE ratio: 0.500000
    position:         (-4.000000, 0.000000, 0.000000)
    velocity:         (-2.478815, -0.250864, 5.019380)
    angular velocity: (-4.603127, 3.481908, 2.483134)
    orientation:      (w=-0.351490, i=-0.831375, j=0.290309, k=0.317790)
  Body  2
    density:          1.000000
    shape axes ratio: (1.000000, 0.970590, 0.970590)
    initial KE ratio: 0.500000
    position:         (4.000000, 0.000000, 0.000000)
    velocity:         (-2.498428, -0.252848, 5.059095)
    angular velocity: (0.712685, 6.236867, -0.268311)
    orientation:      (w=0.270109, i=-0.536399, j=-0.496284, k=-0.626912)

Preparing first step: implicit scheme, no bootstrap passes required.
First step may take longer than later steps.

First step completed in 0.312 s.

Step   100/2000    5.0% | t 5.000 | ETA 3m 37s | step 0.11s | KE 261.2843 | drift -3.26% | fluid 71.9535 | solid 189.3308
  Impulse FP iterations last/mean/max 8/8.00/8
Step   200/2000   10.0% | t 10.000 | ETA 3m 25s | step 0.11s | KE 260.0408 | drift -3.72% | fluid 71.6470 | solid 188.3939
  Impulse FP iterations last/mean/max 8/8.00/8
Step   300/2000   15.0% | t 15.000 | ETA 3m 13s | step 0.12s | KE 261.3055 | drift -3.25% | fluid 71.4843 | solid 189.8212
  Impulse FP iterations last/mean/max 8/8.00/8
Step   400/2000   20.0% | t 20.000 | ETA 3m 1s | step 0.11s | KE 261.2199 | drift -3.28% | fluid 71.5580 | solid 189.6620
  Impulse FP iterations last/mean/max 8/8.00/8
Step   500/2000   25.0% | t 25.000 | ETA 2m 50s | step 0.11s | KE 258.6998 | drift -4.21% | fluid 71.9474 | solid 186.7524
  Impulse FP iterations last/mean/max 8/8.00/8
Step   600/2000   30.0% | t 30.000 | ETA 2m 38s | step 0.11s | KE 254.9687 | drift -5.59% | fluid 71.5527 | solid 183.4160
  Impulse FP iterations last/mean/max 8/8.00/8
Step   700/2000   35.0% | t 35.000 | ETA 2m 27s | step 0.12s | KE 256.0856 | drift -5.18% | fluid 71.5788 | solid 184.5068
  Impulse FP iterations last/mean/max 8/8.00/8
Step   800/2000   40.0% | t 40.000 | ETA 2m 16s | step 0.11s | KE 276.5537 | drift +2.40% | fluid 71.8696 | solid 204.6841
  Impulse FP iterations last/mean/max 8/8.00/8
Step   900/2000   45.0% | t 45.000 | ETA 2m 5s | step 0.12s | KE 313.4705 | drift +16.07% | fluid 71.9027 | solid 241.5678
  Impulse FP iterations last/mean/max 8/8.00/8
Step  1000/2000   50.0% | t 50.000 | ETA 1m 53s | step 0.12s | KE 359.3553 | drift +33.06% | fluid 71.6388 | solid 287.7165
  Impulse FP iterations last/mean/max 8/7.98/8
Step  1100/2000   55.0% | t 55.000 | ETA 1m 42s | step 0.12s | KE 414.1786 | drift +53.36% | fluid 71.7945 | solid 342.3841
  Impulse FP iterations last/mean/max 8/7.97/8
Step  1200/2000   60.0% | t 60.000 | ETA 1m 30s | step 0.11s | KE 482.2062 | drift +78.54% | fluid 71.7342 | solid 410.4719
  Impulse FP iterations last/mean/max 8/7.96/8
Step  1300/2000   65.0% | t 65.000 | ETA 1m 19s | step 0.12s | KE 569.6344 | drift +110.92% | fluid 72.0944 | solid 497.5399
  Impulse FP iterations last/mean/max 8/7.96/8
Step  1400/2000   70.0% | t 70.000 | ETA 1m 8s | step 0.12s | KE 686.3237 | drift +154.12% | fluid 72.0911 | solid 614.2326
  Impulse FP iterations last/mean/max 8/7.96/8
Step  1500/2000   75.0% | t 75.000 | ETA 56s | step 0.12s | KE 842.7619 | drift +212.04% | fluid 71.5375 | solid 771.2245
  Impulse FP iterations last/mean/max 8/7.96/8
Step  1600/2000   80.0% | t 80.000 | ETA 45s | step 0.11s | KE 1042.3252 | drift +285.94% | fluid 72.2610 | solid 970.0642
  Impulse FP iterations last/mean/max 8/7.97/8
Step  1700/2000   85.0% | t 85.000 | ETA 34s | step 0.12s | KE 1282.8137 | drift +374.98% | fluid 71.7033 | solid 1211.1103
  Impulse FP iterations last/mean/max 8/7.97/8
Step  1800/2000   90.0% | t 90.000 | ETA 22s | step 0.11s | KE 1526.8390 | drift +465.33% | fluid 72.1022 | solid 1454.7367
  Impulse FP iterations last/mean/max 8/7.97/8
Step  1900/2000   95.0% | t 95.000 | ETA 11s | step 0.08s | KE 1745.0052 | drift +546.11% | fluid 72.2053 | solid 1672.7998
  Impulse FP iterations last/mean/max 8/7.97/8
Solver finished successfully - good job!
Results saved successfully.

================== Run summary ==================
  Bodies:            2
  Triangles / nodes: 256 / 516
  Timesteps:         2000  (dt = 0.05)
  Simulated time:    0 -> 100
  First-step setup:  0.312 s
  Mean time/step:    0.1113 s  (excl. first step)
  Total wall time:   3m 42s
  Impulse FP iters last/mean/max: 8 / 7.973 / 8
  Approx impulse solves/step:     7.973
  Impulse start cache hits/direct: 1999 / 1
  Impulse global drift P/H:       1.712508e-8 / 1.762596e-1
  Impulse per-body max drift P/H: 2.536570e-8 / 2.577292e-2
  CPU cores:         256 available, 8 Rayon worker thread(s)
  Started:           2026-06-24 02:26:40
  Finished:          2026-06-24 02:30:23
  Output file:       /work/e643/e643/shared/multi_ellip/studies/departing_sphericity_sweep/runs/spheroid_prolate/homogeneous/spheroid_prolate_homogeneous_eps0p01_rho1_E0p5_sep8_run09_impulse_noproj/multiple_body_complete.dat
================================================
