
================ Simulation setup ================
  Run label:         /work/e643/e643/shared/multi_ellip/studies/departing_sphericity_sweep/runs/spheroid_prolate/homogeneous/spheroid_prolate_homogeneous_eps0p1_rho1_E0p5_sep8_run04_impulse_noproj/
  Started:           2026-06-24 02:30:36
  Input file:        /work/e643/e643/shared/multi_ellip/studies/departing_sphericity_sweep/runs/spheroid_prolate/homogeneous/spheroid_prolate_homogeneous_eps0p1_rho1_E0p5_sep8_run04_impulse_noproj/input.txt
  Output file:       /work/e643/e643/shared/multi_ellip/studies/departing_sphericity_sweep/runs/spheroid_prolate/homogeneous/spheroid_prolate_homogeneous_eps0p1_rho1_E0p5_sep8_run04_impulse_noproj/multiple_body_complete.dat
  Bodies:            2
  Fluid density:     1
  Mesh:              ndiv 2 -> 256 triangles / 516 nodes
  Simulated time:    0 -> 100  (dt = 0.05, ~2000 steps)
  Output cadence:    every 1 step(s)
  Output rows:       ~2001
  Progress cadence:  every 100 step(s)
  CPU cores:         256 available, 8 Rayon worker thread(s)
  Strong coupling:   disabled
  Impulse scheme:    enabled
  Hamiltonian step:  disabled
  Hamiltonian midpt: disabled
  Variational step:  disabled
  Energy projection: disabled
  Projection particular metric: Euclidean
  Fluid KE gradient: disabled  (eps = 0.001, scale = 1, linear = 1, angular = 1)
  Fluid KE discrete gradient: disabled
  Impulse pair metric correction: disabled  (mode = pair discrete-gradient, cutoff = all pairs, inner/outer = 0/0, eps = 0.001, linear scale = 1, angular scale = 0)
  Impulse metric correction: disabled  (internal load constraint = disabled)
  Impulse variational defect probe: disabled
  Impulse quadratic pressure: disabled  (scale = 1)
  Added-mass stab:   disabled
  Exact BEM geometry: disabled
  Exact singular BEM: disabled
  Legacy singular SLP diagnostic: disabled
  Phi-dot blend:     0 (off)

  Solver guidance:
    - Strong coupling: use for stiff close-coupled runs; slower but more implicit.
    - Impulse scheme: use when impulse/momentum conservation or KE drift is the focus. Recommended.
    - Added-mass stab: use for higher mesh counts (ndiv > 3) to preserve stability - deprecated.
================================================
Solver starting - good luck!

Initial state:
  Body  1
    density:          1.000000
    shape axes ratio: (1.000000, 0.751315, 0.751315)
    initial KE ratio: 0.500000
    position:         (-4.000000, 0.000000, 0.000000)
    velocity:         (3.700409, 2.721768, 3.800681)
    angular velocity: (-1.564915, 1.629881, -5.862844)
    orientation:      (w=0.006207, i=-0.223940, j=0.027931, k=0.974183)
  Body  2
    density:          1.000000
    shape axes ratio: (1.000000, 0.751315, 0.751315)
    initial KE ratio: 0.500000
    position:         (4.000000, 0.000000, 0.000000)
    velocity:         (3.322828, 2.444045, 3.412868)
    angular velocity: (-5.425733, -1.324431, 2.878492)
    orientation:      (w=0.567207, i=-0.257712, j=0.475390, k=-0.621180)

Preparing first step: implicit scheme, no bootstrap passes required.
First step may take longer than later steps.

First step completed in 0.260 s.

Step   100/2000    5.0% | t 5.000 | ETA 4m 19s | step 0.14s | KE 274.6520 | drift +0.45% | fluid 66.2519 | solid 208.4001
  Impulse FP iterations last/mean/max 10/9.75/10
Step   200/2000   10.0% | t 10.000 | ETA 4m 9s | step 0.14s | KE 274.8355 | drift +0.51% | fluid 73.2562 | solid 201.5792
  Impulse FP iterations last/mean/max 10/9.78/10
Step   300/2000   15.0% | t 15.000 | ETA 3m 56s | step 0.13s | KE 275.1162 | drift +0.62% | fluid 72.0904 | solid 203.0258
  Impulse FP iterations last/mean/max 9/9.80/10
Step   400/2000   20.0% | t 20.000 | ETA 3m 42s | step 0.15s | KE 275.1905 | drift +0.64% | fluid 69.0783 | solid 206.1122
  Impulse FP iterations last/mean/max 10/9.80/10
Step   500/2000   25.0% | t 25.000 | ETA 3m 26s | step 0.13s | KE 274.8948 | drift +0.54% | fluid 72.3915 | solid 202.5033
  Impulse FP iterations last/mean/max 10/9.80/10
Step   600/2000   30.0% | t 30.000 | ETA 3m 11s | step 0.14s | KE 275.4159 | drift +0.73% | fluid 65.1199 | solid 210.2961
  Impulse FP iterations last/mean/max 10/9.81/10
Step   700/2000   35.0% | t 35.000 | ETA 2m 57s | step 0.14s | KE 275.1804 | drift +0.64% | fluid 66.9368 | solid 208.2436
  Impulse FP iterations last/mean/max 10/9.80/10
Step   800/2000   40.0% | t 40.000 | ETA 2m 44s | step 0.14s | KE 274.7507 | drift +0.48% | fluid 73.6336 | solid 201.1171
  Impulse FP iterations last/mean/max 10/9.80/10
Step   900/2000   45.0% | t 45.000 | ETA 2m 31s | step 0.14s | KE 275.4447 | drift +0.74% | fluid 68.6679 | solid 206.7768
  Impulse FP iterations last/mean/max 10/9.81/10
Step  1000/2000   50.0% | t 50.000 | ETA 2m 17s | step 0.14s | KE 274.8755 | drift +0.53% | fluid 73.4391 | solid 201.4364
  Impulse FP iterations last/mean/max 10/9.81/10
Step  1100/2000   55.0% | t 55.000 | ETA 2m 3s | step 0.14s | KE 275.0329 | drift +0.59% | fluid 69.0657 | solid 205.9672
  Impulse FP iterations last/mean/max 10/9.80/10
Step  1200/2000   60.0% | t 60.000 | ETA 1m 50s | step 0.14s | KE 275.3387 | drift +0.70% | fluid 65.9895 | solid 209.3493
  Impulse FP iterations last/mean/max 10/9.80/10
Step  1300/2000   65.0% | t 65.000 | ETA 1m 36s | step 0.14s | KE 275.0107 | drift +0.58% | fluid 69.5706 | solid 205.4401
  Impulse FP iterations last/mean/max 10/9.80/10
Step  1400/2000   70.0% | t 70.000 | ETA 1m 22s | step 0.14s | KE 275.0445 | drift +0.59% | fluid 68.8976 | solid 206.1469
  Impulse FP iterations last/mean/max 10/9.80/10
Step  1500/2000   75.0% | t 75.000 | ETA 1m 9s | step 0.14s | KE 275.0369 | drift +0.59% | fluid 73.1195 | solid 201.9174
  Impulse FP iterations last/mean/max 10/9.80/10
Step  1600/2000   80.0% | t 80.000 | ETA 55s | step 0.13s | KE 275.1893 | drift +0.64% | fluid 71.3152 | solid 203.8741
  Impulse FP iterations last/mean/max 9/9.80/10
Step  1700/2000   85.0% | t 85.000 | ETA 41s | step 0.12s | KE 274.9805 | drift +0.57% | fluid 69.6962 | solid 205.2843
  Impulse FP iterations last/mean/max 10/9.80/10
Step  1800/2000   90.0% | t 90.000 | ETA 27s | step 0.13s | KE 275.0477 | drift +0.59% | fluid 68.6878 | solid 206.3599
  Impulse FP iterations last/mean/max 10/9.80/10
Step  1900/2000   95.0% | t 95.000 | ETA 13s | step 0.11s | KE 275.4360 | drift +0.73% | fluid 64.7153 | solid 210.7207
  Impulse FP iterations last/mean/max 10/9.80/10
Solver finished successfully - good job!
Results saved successfully.

================== Run summary ==================
  Bodies:            2
  Triangles / nodes: 256 / 516
  Timesteps:         2000  (dt = 0.05)
  Simulated time:    0 -> 100
  First-step setup:  0.260 s
  Mean time/step:    0.1347 s  (excl. first step)
  Total wall time:   4m 29s
  Impulse FP iters last/mean/max: 10 / 9.802 / 10
  Approx impulse solves/step:     9.803
  Impulse start cache hits/direct: 1999 / 1
  Impulse global drift P/H:       2.077822e-8 / 1.077531e-2
  Impulse per-body max drift P/H: 2.172891e-8 / 1.905604e-3
  CPU cores:         256 available, 8 Rayon worker thread(s)
  Started:           2026-06-24 02:30:36
  Finished:          2026-06-24 02:35:06
  Output file:       /work/e643/e643/shared/multi_ellip/studies/departing_sphericity_sweep/runs/spheroid_prolate/homogeneous/spheroid_prolate_homogeneous_eps0p1_rho1_E0p5_sep8_run04_impulse_noproj/multiple_body_complete.dat
================================================
