
================ Simulation setup ================
  Run label:         /work/e643/e643/shared/multi_ellip/studies/departing_sphericity_sweep/runs/triaxial/heterogeneous_sphere/triaxial_heterogeneous_sphere_eps0p1_rho1_E0p5_sep8_run01_impulse_noproj/
  Started:           2026-06-24 02:46:58
  Input file:        /work/e643/e643/shared/multi_ellip/studies/departing_sphericity_sweep/runs/triaxial/heterogeneous_sphere/triaxial_heterogeneous_sphere_eps0p1_rho1_E0p5_sep8_run01_impulse_noproj/input.txt
  Output file:       /work/e643/e643/shared/multi_ellip/studies/departing_sphericity_sweep/runs/triaxial/heterogeneous_sphere/triaxial_heterogeneous_sphere_eps0p1_rho1_E0p5_sep8_run01_impulse_noproj/multiple_body_complete.dat
  Bodies:            2
  Fluid density:     1
  Mesh:              ndiv 2 -> 256 triangles / 516 nodes
  Simulated time:    0 -> 100  (dt = 0.05, ~2000 steps)
  Output cadence:    every 1 step(s)
  Output rows:       ~2001
  Progress cadence:  every 100 step(s)
  CPU cores:         256 available, 8 Rayon worker thread(s)
  Strong coupling:   disabled
  Impulse scheme:    enabled
  Hamiltonian step:  disabled
  Hamiltonian midpt: disabled
  Variational step:  disabled
  Energy projection: disabled
  Projection particular metric: Euclidean
  Fluid KE gradient: disabled  (eps = 0.001, scale = 1, linear = 1, angular = 1)
  Fluid KE discrete gradient: disabled
  Impulse pair metric correction: disabled  (mode = pair discrete-gradient, cutoff = all pairs, inner/outer = 0/0, eps = 0.001, linear scale = 1, angular scale = 0)
  Impulse metric correction: disabled  (internal load constraint = disabled)
  Impulse variational defect probe: disabled
  Impulse quadratic pressure: disabled  (scale = 1)
  Added-mass stab:   disabled
  Exact BEM geometry: disabled
  Exact singular BEM: disabled
  Legacy singular SLP diagnostic: disabled
  Phi-dot blend:     0 (off)

  Solver guidance:
    - Strong coupling: use for stiff close-coupled runs; slower but more implicit.
    - Impulse scheme: use when impulse/momentum conservation or KE drift is the focus. Recommended.
    - Added-mass stab: use for higher mesh counts (ndiv > 3) to preserve stability - deprecated.
================================================
Solver starting - good luck!

Initial state:
  Body  1
    density:          1.000000
    shape axes ratio: (1.000000, 0.909091, 0.826446)
    initial KE ratio: 0.500000
    position:         (-4.000000, 0.000000, 0.000000)
    velocity:         (-5.276360, -1.991259, 1.416379)
    angular velocity: (1.486820, -3.283703, 5.146366)
    orientation:      (w=-0.788051, i=-0.140493, j=-0.457064, k=-0.387724)
  Body  2
    density:          1.000000
    shape axes ratio: (1.000000, 1.000000, 1.000000)
    initial KE ratio: 0.500000
    position:         (4.000000, 0.000000, 0.000000)
    velocity:         (-5.099515, -1.924519, 1.368907)
    angular velocity: (4.318012, 1.904659, -4.147947)
    orientation:      (w=0.071833, i=-0.987422, j=-0.104819, k=-0.094073)

Preparing first step: implicit scheme, no bootstrap passes required.
First step may take longer than later steps.

First step completed in 0.259 s.

Step   100/2000    5.0% | t 5.000 | ETA 4m 1s | step 0.13s | KE 278.4171 | drift +0.30% | fluid 74.5432 | solid 203.8739
  Impulse FP iterations last/mean/max 9/9.00/9
Step   200/2000   10.0% | t 10.000 | ETA 3m 50s | step 0.13s | KE 279.8943 | drift +0.83% | fluid 73.4181 | solid 206.4761
  Impulse FP iterations last/mean/max 9/8.99/9
Step   300/2000   15.0% | t 15.000 | ETA 3m 36s | step 0.13s | KE 281.2536 | drift +1.32% | fluid 74.4091 | solid 206.8445
  Impulse FP iterations last/mean/max 9/8.96/9
Step   400/2000   20.0% | t 20.000 | ETA 3m 24s | step 0.13s | KE 282.3331 | drift +1.71% | fluid 75.4261 | solid 206.9070
  Impulse FP iterations last/mean/max 9/8.96/9
Step   500/2000   25.0% | t 25.000 | ETA 3m 11s | step 0.13s | KE 283.0991 | drift +1.99% | fluid 75.7859 | solid 207.3132
  Impulse FP iterations last/mean/max 9/8.96/9
Step   600/2000   30.0% | t 30.000 | ETA 2m 58s | step 0.14s | KE 283.6948 | drift +2.20% | fluid 75.7555 | solid 207.9393
  Impulse FP iterations last/mean/max 9/8.97/10
Step   700/2000   35.0% | t 35.000 | ETA 2m 46s | step 0.13s | KE 284.2095 | drift +2.39% | fluid 75.6528 | solid 208.5568
  Impulse FP iterations last/mean/max 9/8.95/10
Step   800/2000   40.0% | t 40.000 | ETA 2m 33s | step 0.10s | KE 284.7230 | drift +2.57% | fluid 75.2764 | solid 209.4466
  Impulse FP iterations last/mean/max 7/8.95/10
Step   900/2000   45.0% | t 45.000 | ETA 2m 20s | step 0.13s | KE 285.0300 | drift +2.68% | fluid 75.4050 | solid 209.6249
  Impulse FP iterations last/mean/max 9/8.95/10
Step  1000/2000   50.0% | t 50.000 | ETA 2m 7s | step 0.12s | KE 285.1748 | drift +2.73% | fluid 75.9240 | solid 209.2508
  Impulse FP iterations last/mean/max 9/8.95/10
Step  1100/2000   55.0% | t 55.000 | ETA 1m 55s | step 0.13s | KE 285.4671 | drift +2.84% | fluid 74.5594 | solid 210.9077
  Impulse FP iterations last/mean/max 9/8.95/10
Step  1200/2000   60.0% | t 60.000 | ETA 1m 42s | step 0.13s | KE 285.6068 | drift +2.89% | fluid 74.8379 | solid 210.7690
  Impulse FP iterations last/mean/max 9/8.95/10
Step  1300/2000   65.0% | t 65.000 | ETA 1m 29s | step 0.13s | KE 285.7418 | drift +2.94% | fluid 75.5369 | solid 210.2050
  Impulse FP iterations last/mean/max 9/8.95/10
Step  1400/2000   70.0% | t 70.000 | ETA 1m 16s | step 0.12s | KE 285.8938 | drift +2.99% | fluid 75.4105 | solid 210.4833
  Impulse FP iterations last/mean/max 9/8.95/10
Step  1500/2000   75.0% | t 75.000 | ETA 1m 3s | step 0.13s | KE 285.9819 | drift +3.02% | fluid 75.3843 | solid 210.5976
  Impulse FP iterations last/mean/max 9/8.95/10
Step  1600/2000   80.0% | t 80.000 | ETA 51s | step 0.13s | KE 286.0766 | drift +3.06% | fluid 74.9911 | solid 211.0855
  Impulse FP iterations last/mean/max 9/8.96/10
Step  1700/2000   85.0% | t 85.000 | ETA 38s | step 0.12s | KE 286.0185 | drift +3.04% | fluid 75.5567 | solid 210.4618
  Impulse FP iterations last/mean/max 9/8.96/10
Step  1800/2000   90.0% | t 90.000 | ETA 25s | step 0.10s | KE 286.0732 | drift +3.06% | fluid 75.7223 | solid 210.3508
  Impulse FP iterations last/mean/max 9/8.96/10
Step  1900/2000   95.0% | t 95.000 | ETA 12s | step 0.10s | KE 286.1816 | drift +3.10% | fluid 75.1527 | solid 211.0289
  Impulse FP iterations last/mean/max 9/8.96/10
Solver finished successfully - good job!
Results saved successfully.

================== Run summary ==================
  Bodies:            2
  Triangles / nodes: 256 / 516
  Timesteps:         2000  (dt = 0.05)
  Simulated time:    0 -> 100
  First-step setup:  0.259 s
  Mean time/step:    0.1254 s  (excl. first step)
  Total wall time:   4m 10s
  Impulse FP iters last/mean/max: 9 / 8.956 / 10
  Approx impulse solves/step:     8.957
  Impulse start cache hits/direct: 1999 / 1
  Impulse global drift P/H:       1.007615e-8 / 9.024070e-3
  Impulse per-body max drift P/H: 2.154316e-8 / 1.311207e-3
  CPU cores:         256 available, 8 Rayon worker thread(s)
  Started:           2026-06-24 02:46:58
  Finished:          2026-06-24 02:51:09
  Output file:       /work/e643/e643/shared/multi_ellip/studies/departing_sphericity_sweep/runs/triaxial/heterogeneous_sphere/triaxial_heterogeneous_sphere_eps0p1_rho1_E0p5_sep8_run01_impulse_noproj/multiple_body_complete.dat
================================================
