
================ Simulation setup ================
  Run label:         /work/e643/e643/shared/multi_ellip/studies/two_body_paper_sweeps/runs/ellipsoid_1_0p8_0p6/ellipsoid_1_0p8_0p6_rho0p3_E1p5_sep8_run02_impulse_noproj/
  Started:           2026-06-22 19:47:27
  Input file:        /work/e643/e643/shared/multi_ellip/studies/two_body_paper_sweeps/runs/ellipsoid_1_0p8_0p6/ellipsoid_1_0p8_0p6_rho0p3_E1p5_sep8_run02_impulse_noproj/input.txt
  Output file:       /work/e643/e643/shared/multi_ellip/studies/two_body_paper_sweeps/runs/ellipsoid_1_0p8_0p6/ellipsoid_1_0p8_0p6_rho0p3_E1p5_sep8_run02_impulse_noproj/multiple_body_complete.dat
  Bodies:            2
  Fluid density:     1
  Mesh:              ndiv 2 -> 256 triangles / 516 nodes
  Simulated time:    0 -> 100  (dt = 0.05, ~2000 steps)
  Output cadence:    every 1 step(s)
  Output rows:       ~2001
  Progress cadence:  every 100 step(s)
  CPU cores:         256 available, 8 Rayon worker thread(s)
  Strong coupling:   disabled
  Impulse scheme:    enabled
  Hamiltonian step:  disabled
  Hamiltonian midpt: disabled
  Variational step:  disabled
  Energy projection: disabled
  Projection particular metric: Euclidean
  Fluid KE gradient: disabled  (eps = 0.001, scale = 1, linear = 1, angular = 1)
  Fluid KE discrete gradient: disabled
  Impulse pair metric correction: disabled  (mode = pair discrete-gradient, cutoff = all pairs, inner/outer = 0/0, eps = 0.001, linear scale = 1, angular scale = 0)
  Impulse metric correction: disabled  (internal load constraint = disabled)
  Impulse variational defect probe: disabled
  Impulse quadratic pressure: disabled  (scale = 1)
  Added-mass stab:   disabled
  Exact BEM geometry: disabled
  Exact singular BEM: disabled
  Legacy singular SLP diagnostic: disabled
  Phi-dot blend:     0 (off)

  Solver guidance:
    - Strong coupling: use for stiff close-coupled runs; slower but more implicit.
    - Impulse scheme: use when impulse/momentum conservation or KE drift is the focus. Recommended.
    - Added-mass stab: use for higher mesh counts (ndiv > 3) to preserve stability - deprecated.
================================================
Solver starting - good luck!

Initial state:
  Body  1
    density:          0.300000
    shape axes ratio: (1.000000, 0.800000, 0.600000)
    initial KE ratio: 1.500000
    position:         (-4.000000, 0.000000, 0.000000)
    velocity:         (1.698908, -1.552145, 1.879404)
    angular velocity: (6.130152, 0.615723, -1.233099)
    orientation:      (w=0.577350, i=0.577350, j=0.577350, k=0.000000)
  Body  2
    density:          0.300000
    shape axes ratio: (1.000000, 0.800000, 0.600000)
    initial KE ratio: 1.500000
    position:         (4.000000, 0.000000, 0.000000)
    velocity:         (2.014625, -1.840588, 2.228663)
    angular velocity: (-2.639400, -3.386419, 4.587390)
    orientation:      (w=0.577350, i=-0.577350, j=0.000000, k=0.577350)

Preparing first step: implicit scheme, no bootstrap passes required.
First step may take longer than later steps.

First step completed in 0.246 s.

Step   100/2000    5.0% | t 5.000 | ETA 5m 38s | step 0.19s | KE 61.1693 | drift -1.56% | fluid 30.9711 | solid 30.1982
  Impulse FP iterations last/mean/max 14/14.15/16
Step   200/2000   10.0% | t 10.000 | ETA 5m 34s | step 0.19s | KE 60.7487 | drift -2.24% | fluid 30.7371 | solid 30.0116
  Impulse FP iterations last/mean/max 15/14.18/16
Step   300/2000   15.0% | t 15.000 | ETA 5m 21s | step 0.18s | KE 60.7776 | drift -2.19% | fluid 28.8958 | solid 31.8819
  Impulse FP iterations last/mean/max 14/14.17/16
Step   400/2000   20.0% | t 20.000 | ETA 5m 3s | step 0.20s | KE 60.8865 | drift -2.01% | fluid 28.7852 | solid 32.1013
  Impulse FP iterations last/mean/max 15/14.14/16
Step   500/2000   25.0% | t 25.000 | ETA 4m 44s | step 0.15s | KE 60.9409 | drift -1.93% | fluid 28.8851 | solid 32.0559
  Impulse FP iterations last/mean/max 13/14.13/16
Step   600/2000   30.0% | t 30.000 | ETA 4m 22s | step 0.16s | KE 60.9808 | drift -1.86% | fluid 29.2618 | solid 31.7190
  Impulse FP iterations last/mean/max 13/14.08/16
Step   700/2000   35.0% | t 35.000 | ETA 4m 3s | step 0.19s | KE 60.9827 | drift -1.86% | fluid 28.8525 | solid 32.1302
  Impulse FP iterations last/mean/max 14/14.09/16
Step   800/2000   40.0% | t 40.000 | ETA 3m 45s | step 0.20s | KE 60.7893 | drift -2.17% | fluid 27.5157 | solid 33.2736
  Impulse FP iterations last/mean/max 14/14.10/16
Step   900/2000   45.0% | t 45.000 | ETA 3m 27s | step 0.18s | KE 60.7429 | drift -2.25% | fluid 31.1443 | solid 29.5986
  Impulse FP iterations last/mean/max 14/14.13/16
Step  1000/2000   50.0% | t 50.000 | ETA 3m 9s | step 0.19s | KE 60.9674 | drift -1.88% | fluid 32.0391 | solid 28.9283
  Impulse FP iterations last/mean/max 14/14.13/16
Step  1100/2000   55.0% | t 55.000 | ETA 2m 50s | step 0.19s | KE 60.8774 | drift -2.03% | fluid 28.2739 | solid 32.6034
  Impulse FP iterations last/mean/max 14/14.14/16
Step  1200/2000   60.0% | t 60.000 | ETA 2m 32s | step 0.20s | KE 60.8453 | drift -2.08% | fluid 31.7701 | solid 29.0752
  Impulse FP iterations last/mean/max 15/14.14/16
Step  1300/2000   65.0% | t 65.000 | ETA 2m 13s | step 0.18s | KE 60.9654 | drift -1.89% | fluid 30.1901 | solid 30.7753
  Impulse FP iterations last/mean/max 14/14.15/16
Step  1400/2000   70.0% | t 70.000 | ETA 1m 54s | step 0.20s | KE 60.9885 | drift -1.85% | fluid 28.0652 | solid 32.9234
  Impulse FP iterations last/mean/max 14/14.14/16
Step  1500/2000   75.0% | t 75.000 | ETA 1m 35s | step 0.20s | KE 60.9531 | drift -1.91% | fluid 29.4248 | solid 31.5283
  Impulse FP iterations last/mean/max 15/14.14/16
Step  1600/2000   80.0% | t 80.000 | ETA 1m 16s | step 0.19s | KE 60.8664 | drift -2.05% | fluid 28.4233 | solid 32.4431
  Impulse FP iterations last/mean/max 14/14.13/16
Step  1700/2000   85.0% | t 85.000 | ETA 57s | step 0.21s | KE 61.0080 | drift -1.82% | fluid 29.2800 | solid 31.7280
  Impulse FP iterations last/mean/max 15/14.12/16
Step  1800/2000   90.0% | t 90.000 | ETA 38s | step 0.19s | KE 61.0316 | drift -1.78% | fluid 30.4681 | solid 30.5635
  Impulse FP iterations last/mean/max 14/14.11/16
Step  1900/2000   95.0% | t 95.000 | ETA 19s | step 0.19s | KE 60.8649 | drift -2.05% | fluid 28.8969 | solid 31.9680
  Impulse FP iterations last/mean/max 14/14.11/16
Solver finished successfully - good job!
Results saved successfully.

================== Run summary ==================
  Bodies:            2
  Triangles / nodes: 256 / 516
  Timesteps:         2000  (dt = 0.05)
  Simulated time:    0 -> 100
  First-step setup:  0.246 s
  Mean time/step:    0.1906 s  (excl. first step)
  Total wall time:   6m 21s
  Impulse FP iters last/mean/max: 14 / 14.112 / 16
  Approx impulse solves/step:     14.113
  Impulse start cache hits/direct: 1999 / 1
  Impulse global drift P/H:       2.057768e-8 / 3.081336e-2
  Impulse per-body max drift P/H: 3.287914e-8 / 4.599963e-3
  CPU cores:         256 available, 8 Rayon worker thread(s)
  Started:           2026-06-22 19:47:27
  Finished:          2026-06-22 19:53:49
  Output file:       /work/e643/e643/shared/multi_ellip/studies/two_body_paper_sweeps/runs/ellipsoid_1_0p8_0p6/ellipsoid_1_0p8_0p6_rho0p3_E1p5_sep8_run02_impulse_noproj/multiple_body_complete.dat
================================================
