
================ Simulation setup ================
  Run label:         /work/e643/e643/shared/multi_ellip/studies/two_body_paper_sweeps/runs/spheroid_1_0p7_0p7/spheroid_1_0p7_0p7_rho4_E4_sep8_run04_impulse_noproj/
  Started:           2026-06-24 01:25:48
  Input file:        /work/e643/e643/shared/multi_ellip/studies/two_body_paper_sweeps/runs/spheroid_1_0p7_0p7/spheroid_1_0p7_0p7_rho4_E4_sep8_run04_impulse_noproj/input.txt
  Output file:       /work/e643/e643/shared/multi_ellip/studies/two_body_paper_sweeps/runs/spheroid_1_0p7_0p7/spheroid_1_0p7_0p7_rho4_E4_sep8_run04_impulse_noproj/multiple_body_complete.dat
  Bodies:            2
  Fluid density:     1
  Mesh:              ndiv 2 -> 256 triangles / 516 nodes
  Simulated time:    0 -> 100  (dt = 0.05, ~2000 steps)
  Output cadence:    every 1 step(s)
  Output rows:       ~2001
  Progress cadence:  every 100 step(s)
  CPU cores:         256 available, 8 Rayon worker thread(s)
  Strong coupling:   disabled
  Impulse scheme:    enabled
  Hamiltonian step:  disabled
  Hamiltonian midpt: disabled
  Variational step:  disabled
  Energy projection: disabled
  Projection particular metric: Euclidean
  Fluid KE gradient: disabled  (eps = 0.001, scale = 1, linear = 1, angular = 1)
  Fluid KE discrete gradient: disabled
  Impulse pair metric correction: disabled  (mode = pair discrete-gradient, cutoff = all pairs, inner/outer = 0/0, eps = 0.001, linear scale = 1, angular scale = 0)
  Impulse metric correction: disabled  (internal load constraint = disabled)
  Impulse variational defect probe: disabled
  Impulse quadratic pressure: disabled  (scale = 1)
  Added-mass stab:   disabled
  Exact BEM geometry: disabled
  Exact singular BEM: disabled
  Legacy singular SLP diagnostic: disabled
  Phi-dot blend:     0 (off)

  Solver guidance:
    - Strong coupling: use for stiff close-coupled runs; slower but more implicit.
    - Impulse scheme: use when impulse/momentum conservation or KE drift is the focus. Recommended.
    - Added-mass stab: use for higher mesh counts (ndiv > 3) to preserve stability - deprecated.
================================================
Solver starting - good luck!

Initial state:
  Body  1
    density:          4.000000
    shape axes ratio: (1.000000, 0.700000, 0.700000)
    initial KE ratio: 4.000000
    position:         (-4.000000, 0.000000, 0.000000)
    velocity:         (-1.569728, -0.531635, 0.967810)
    angular velocity: (5.055874, -2.420209, -2.838864)
    orientation:      (w=0.299934, i=-0.321968, j=0.778669, k=-0.447271)
  Body  2
    density:          4.000000
    shape axes ratio: (1.000000, 0.700000, 0.700000)
    initial KE ratio: 4.000000
    position:         (4.000000, 0.000000, 0.000000)
    velocity:         (-1.517844, -0.514063, 0.935821)
    angular velocity: (5.603441, -2.060712, 1.957889)
    orientation:      (w=-0.883183, i=0.289045, j=-0.340369, k=-0.143492)

Preparing first step: implicit scheme, no bootstrap passes required.
First step may take longer than later steps.

First step completed in 0.305 s.

Step   100/2000    5.0% | t 5.000 | ETA 3m 11s | step 0.10s | KE 380.0614 | drift +0.14% | fluid 14.3850 | solid 365.6764
  Impulse FP iterations last/mean/max 7/7.01/8
Step   200/2000   10.0% | t 10.000 | ETA 3m 0s | step 0.09s | KE 380.4061 | drift +0.23% | fluid 13.5088 | solid 366.8973
  Impulse FP iterations last/mean/max 7/7.04/8
Step   300/2000   15.0% | t 15.000 | ETA 2m 50s | step 0.10s | KE 380.4148 | drift +0.23% | fluid 14.5376 | solid 365.8772
  Impulse FP iterations last/mean/max 7/7.03/8
Step   400/2000   20.0% | t 20.000 | ETA 2m 40s | step 0.09s | KE 380.3432 | drift +0.21% | fluid 13.1072 | solid 367.2360
  Impulse FP iterations last/mean/max 7/7.03/8
Step   500/2000   25.0% | t 25.000 | ETA 2m 31s | step 0.10s | KE 380.0365 | drift +0.13% | fluid 14.8687 | solid 365.1678
  Impulse FP iterations last/mean/max 7/7.02/8
Step   600/2000   30.0% | t 30.000 | ETA 2m 21s | step 0.10s | KE 379.7529 | drift +0.06% | fluid 13.9194 | solid 365.8336
  Impulse FP iterations last/mean/max 7/7.03/8
Step   700/2000   35.0% | t 35.000 | ETA 2m 11s | step 0.10s | KE 379.3275 | drift -0.06% | fluid 14.9275 | solid 364.4000
  Impulse FP iterations last/mean/max 7/7.03/8
Step   800/2000   40.0% | t 40.000 | ETA 2m 1s | step 0.10s | KE 378.9931 | drift -0.14% | fluid 13.4108 | solid 365.5823
  Impulse FP iterations last/mean/max 7/7.03/8
Step   900/2000   45.0% | t 45.000 | ETA 1m 50s | step 0.10s | KE 378.5788 | drift -0.25% | fluid 15.0084 | solid 363.5704
  Impulse FP iterations last/mean/max 7/7.03/8
Step  1000/2000   50.0% | t 50.000 | ETA 1m 40s | step 0.09s | KE 378.2871 | drift -0.33% | fluid 14.1099 | solid 364.1772
  Impulse FP iterations last/mean/max 7/7.02/8
Step  1100/2000   55.0% | t 55.000 | ETA 1m 30s | step 0.10s | KE 377.9539 | drift -0.42% | fluid 14.5625 | solid 363.3914
  Impulse FP iterations last/mean/max 7/7.02/8
Step  1200/2000   60.0% | t 60.000 | ETA 1m 20s | step 0.10s | KE 377.7259 | drift -0.48% | fluid 13.7635 | solid 363.9624
  Impulse FP iterations last/mean/max 7/7.02/8
Step  1300/2000   65.0% | t 65.000 | ETA 1m 10s | step 0.09s | KE 377.5049 | drift -0.54% | fluid 14.5146 | solid 362.9903
  Impulse FP iterations last/mean/max 7/7.02/8
Step  1400/2000   70.0% | t 70.000 | ETA 1m 0s | step 0.09s | KE 377.3325 | drift -0.58% | fluid 14.5537 | solid 362.7788
  Impulse FP iterations last/mean/max 6/7.02/8
Step  1500/2000   75.0% | t 75.000 | ETA 50s | step 0.10s | KE 377.2190 | drift -0.61% | fluid 13.5404 | solid 363.6786
  Impulse FP iterations last/mean/max 7/7.02/8
Step  1600/2000   80.0% | t 80.000 | ETA 39s | step 0.10s | KE 377.0816 | drift -0.65% | fluid 14.5685 | solid 362.5131
  Impulse FP iterations last/mean/max 7/7.01/8
Step  1700/2000   85.0% | t 85.000 | ETA 29s | step 0.09s | KE 377.0559 | drift -0.65% | fluid 13.7673 | solid 363.2886
  Impulse FP iterations last/mean/max 7/7.01/8
Step  1800/2000   90.0% | t 90.000 | ETA 19s | step 0.10s | KE 376.9490 | drift -0.68% | fluid 14.7115 | solid 362.2374
  Impulse FP iterations last/mean/max 7/7.01/8
Step  1900/2000   95.0% | t 95.000 | ETA 9s | step 0.10s | KE 376.9643 | drift -0.68% | fluid 13.1365 | solid 363.8278
  Impulse FP iterations last/mean/max 7/7.01/8
Solver finished successfully - good job!
Results saved successfully.

================== Run summary ==================
  Bodies:            2
  Triangles / nodes: 256 / 516
  Timesteps:         2000  (dt = 0.05)
  Simulated time:    0 -> 100
  First-step setup:  0.305 s
  Mean time/step:    0.0987 s  (excl. first step)
  Total wall time:   3m 17s
  Impulse FP iters last/mean/max: 7 / 7.008 / 8
  Approx impulse solves/step:     7.008
  Impulse start cache hits/direct: 1999 / 1
  Impulse global drift P/H:       1.138902e-8 / 1.589724e-2
  Impulse per-body max drift P/H: 1.490317e-8 / 1.138560e-2
  CPU cores:         256 available, 8 Rayon worker thread(s)
  Started:           2026-06-24 01:25:48
  Finished:          2026-06-24 01:29:06
  Output file:       /work/e643/e643/shared/multi_ellip/studies/two_body_paper_sweeps/runs/spheroid_1_0p7_0p7/spheroid_1_0p7_0p7_rho4_E4_sep8_run04_impulse_noproj/multiple_body_complete.dat
================================================
