
================ Simulation setup ================
  Run label:         /work/e643/e643/shared/multi_ellip/studies/two_body_paper_sweeps/runs/ellipsoid_1_0p8_0p6/ellipsoid_1_0p8_0p6_rho0p3_E4_sep3_run04_impulse_noproj/
  Started:           2026-06-24 01:51:06
  Input file:        /work/e643/e643/shared/multi_ellip/studies/two_body_paper_sweeps/runs/ellipsoid_1_0p8_0p6/ellipsoid_1_0p8_0p6_rho0p3_E4_sep3_run04_impulse_noproj/input.txt
  Output file:       /work/e643/e643/shared/multi_ellip/studies/two_body_paper_sweeps/runs/ellipsoid_1_0p8_0p6/ellipsoid_1_0p8_0p6_rho0p3_E4_sep3_run04_impulse_noproj/multiple_body_complete.dat
  Bodies:            2
  Fluid density:     1
  Mesh:              ndiv 2 -> 256 triangles / 516 nodes
  Simulated time:    0 -> 100  (dt = 0.05, ~2000 steps)
  Output cadence:    every 1 step(s)
  Output rows:       ~2001
  Progress cadence:  every 100 step(s)
  CPU cores:         256 available, 8 Rayon worker thread(s)
  Strong coupling:   disabled
  Impulse scheme:    enabled
  Hamiltonian step:  disabled
  Hamiltonian midpt: disabled
  Variational step:  disabled
  Energy projection: disabled
  Projection particular metric: Euclidean
  Fluid KE gradient: disabled  (eps = 0.001, scale = 1, linear = 1, angular = 1)
  Fluid KE discrete gradient: disabled
  Impulse pair metric correction: disabled  (mode = pair discrete-gradient, cutoff = all pairs, inner/outer = 0/0, eps = 0.001, linear scale = 1, angular scale = 0)
  Impulse metric correction: disabled  (internal load constraint = disabled)
  Impulse variational defect probe: disabled
  Impulse quadratic pressure: disabled  (scale = 1)
  Added-mass stab:   disabled
  Exact BEM geometry: disabled
  Exact singular BEM: disabled
  Legacy singular SLP diagnostic: disabled
  Phi-dot blend:     0 (off)

  Solver guidance:
    - Strong coupling: use for stiff close-coupled runs; slower but more implicit.
    - Impulse scheme: use when impulse/momentum conservation or KE drift is the focus. Recommended.
    - Added-mass stab: use for higher mesh counts (ndiv > 3) to preserve stability - deprecated.
================================================
Solver starting - good luck!

Initial state:
  Body  1
    density:          0.300000
    shape axes ratio: (1.000000, 0.800000, 0.600000)
    initial KE ratio: 4.000000
    position:         (-1.500000, 0.000000, 0.000000)
    velocity:         (-2.087072, 0.257050, 0.586993)
    angular velocity: (-2.925519, 1.716693, -5.288925)
    orientation:      (w=0.166819, i=0.679103, j=-0.706397, k=-0.109519)
  Body  2
    density:          0.300000
    shape axes ratio: (1.000000, 0.800000, 0.600000)
    initial KE ratio: 4.000000
    position:         (1.500000, 0.000000, 0.000000)
    velocity:         (-2.024351, 0.249325, 0.569352)
    angular velocity: (-2.459222, -4.587234, -3.519649)
    orientation:      (w=-0.694714, i=0.199631, j=-0.690616, k=0.023861)

Preparing first step: implicit scheme, no bootstrap passes required.
First step may take longer than later steps.

First step completed in 0.449 s.

Step   100/2000    5.0% | t 5.000 | ETA 8m 50s | step 0.50s | KE 128.1074 | drift +191.95% | fluid 37.9778 | solid 90.1297
  Impulse FP iterations last/mean/max 30/17.35/30
Step   200/2000   10.0% | t 10.000 | ETA 8m 11s | step 0.22s | KE 78.9090 | drift +79.83% | fluid 32.7740 | solid 46.1350
  Impulse FP iterations last/mean/max 15/17.21/30
Step   300/2000   15.0% | t 15.000 | ETA 7m 5s | step 0.18s | KE 78.3059 | drift +78.45% | fluid 30.5317 | solid 47.7742
  Impulse FP iterations last/mean/max 13/16.27/30
Step   400/2000   20.0% | t 20.000 | ETA 6m 21s | step 0.19s | KE 78.5138 | drift +78.93% | fluid 33.7896 | solid 44.7242
  Impulse FP iterations last/mean/max 14/15.80/30
Step   500/2000   25.0% | t 25.000 | ETA 5m 47s | step 0.21s | KE 78.0950 | drift +77.97% | fluid 30.0562 | solid 48.0389
  Impulse FP iterations last/mean/max 15/15.52/30
Step   600/2000   30.0% | t 30.000 | ETA 5m 17s | step 0.20s | KE 78.0129 | drift +77.78% | fluid 28.4411 | solid 49.5718
  Impulse FP iterations last/mean/max 14/15.33/30
Step   700/2000   35.0% | t 35.000 | ETA 4m 50s | step 0.19s | KE 78.2421 | drift +78.31% | fluid 32.0346 | solid 46.2075
  Impulse FP iterations last/mean/max 14/15.18/30
Step   800/2000   40.0% | t 40.000 | ETA 4m 24s | step 0.19s | KE 78.2574 | drift +78.34% | fluid 34.3258 | solid 43.9316
  Impulse FP iterations last/mean/max 15/15.09/30
Step   900/2000   45.0% | t 45.000 | ETA 3m 59s | step 0.19s | KE 77.8186 | drift +77.34% | fluid 34.6214 | solid 43.1972
  Impulse FP iterations last/mean/max 15/15.04/30
Step  1000/2000   50.0% | t 50.000 | ETA 3m 33s | step 0.18s | KE 78.2999 | drift +78.44% | fluid 33.2959 | solid 45.0040
  Impulse FP iterations last/mean/max 14/14.99/30
Step  1100/2000   55.0% | t 55.000 | ETA 3m 11s | step 0.19s | KE 78.2307 | drift +78.28% | fluid 29.8275 | solid 48.4032
  Impulse FP iterations last/mean/max 14/14.95/30
Step  1200/2000   60.0% | t 60.000 | ETA 2m 49s | step 0.20s | KE 78.2192 | drift +78.26% | fluid 33.5091 | solid 44.7101
  Impulse FP iterations last/mean/max 14/14.90/30
Step  1300/2000   65.0% | t 65.000 | ETA 2m 27s | step 0.19s | KE 77.9349 | drift +77.61% | fluid 28.9236 | solid 49.0113
  Impulse FP iterations last/mean/max 14/14.87/30
Step  1400/2000   70.0% | t 70.000 | ETA 2m 6s | step 0.19s | KE 78.2791 | drift +78.39% | fluid 31.2892 | solid 46.9899
  Impulse FP iterations last/mean/max 14/14.85/30
Step  1500/2000   75.0% | t 75.000 | ETA 1m 45s | step 0.22s | KE 78.2322 | drift +78.28% | fluid 30.2107 | solid 48.0215
  Impulse FP iterations last/mean/max 15/14.81/30
Step  1600/2000   80.0% | t 80.000 | ETA 1m 23s | step 0.19s | KE 78.2813 | drift +78.40% | fluid 31.5007 | solid 46.7806
  Impulse FP iterations last/mean/max 15/14.79/30
Step  1700/2000   85.0% | t 85.000 | ETA 1m 2s | step 0.19s | KE 78.1715 | drift +78.15% | fluid 31.7275 | solid 46.4440
  Impulse FP iterations last/mean/max 14/14.77/30
Step  1800/2000   90.0% | t 90.000 | ETA 41s | step 0.22s | KE 78.3297 | drift +78.51% | fluid 33.1117 | solid 45.2179
  Impulse FP iterations last/mean/max 15/14.75/30
Step  1900/2000   95.0% | t 95.000 | ETA 20s | step 0.19s | KE 77.8650 | drift +77.45% | fluid 36.1220 | solid 41.7429
  Impulse FP iterations last/mean/max 15/14.75/30
Solver finished successfully - good job!
Results saved successfully.

================== Run summary ==================
  Bodies:            2
  Triangles / nodes: 256 / 516
  Timesteps:         2000  (dt = 0.05)
  Simulated time:    0 -> 100
  First-step setup:  0.449 s
  Mean time/step:    0.2067 s  (excl. first step)
  Total wall time:   6m 53s
  Impulse FP iters last/mean/max: 15 / 14.746 / 30
  Approx impulse solves/step:     14.747
  Impulse start cache hits/direct: 1999 / 1
  Impulse global drift P/H:       3.878564e-1 / 5.927644e0
  Impulse per-body max drift P/H: 4.857619e-1 / 4.265731e0
  CPU cores:         256 available, 8 Rayon worker thread(s)
  Started:           2026-06-24 01:51:06
  Finished:          2026-06-24 01:58:00
  Output file:       /work/e643/e643/shared/multi_ellip/studies/two_body_paper_sweeps/runs/ellipsoid_1_0p8_0p6/ellipsoid_1_0p8_0p6_rho0p3_E4_sep3_run04_impulse_noproj/multiple_body_complete.dat
================================================
