
================ Simulation setup ================
  Run label:         /work/e643/e643/shared/multi_ellip/studies/departing_sphericity_sweep/runs/spheroid_oblate/homogeneous/spheroid_oblate_homogeneous_eps0p01_rho1_E0p5_sep8_run07_impulse_noproj/
  Started:           2026-06-24 02:26:26
  Input file:        /work/e643/e643/shared/multi_ellip/studies/departing_sphericity_sweep/runs/spheroid_oblate/homogeneous/spheroid_oblate_homogeneous_eps0p01_rho1_E0p5_sep8_run07_impulse_noproj/input.txt
  Output file:       /work/e643/e643/shared/multi_ellip/studies/departing_sphericity_sweep/runs/spheroid_oblate/homogeneous/spheroid_oblate_homogeneous_eps0p01_rho1_E0p5_sep8_run07_impulse_noproj/multiple_body_complete.dat
  Bodies:            2
  Fluid density:     1
  Mesh:              ndiv 2 -> 256 triangles / 516 nodes
  Simulated time:    0 -> 100  (dt = 0.05, ~2000 steps)
  Output cadence:    every 1 step(s)
  Output rows:       ~2001
  Progress cadence:  every 100 step(s)
  CPU cores:         256 available, 8 Rayon worker thread(s)
  Strong coupling:   disabled
  Impulse scheme:    enabled
  Hamiltonian step:  disabled
  Hamiltonian midpt: disabled
  Variational step:  disabled
  Energy projection: disabled
  Projection particular metric: Euclidean
  Fluid KE gradient: disabled  (eps = 0.001, scale = 1, linear = 1, angular = 1)
  Fluid KE discrete gradient: disabled
  Impulse pair metric correction: disabled  (mode = pair discrete-gradient, cutoff = all pairs, inner/outer = 0/0, eps = 0.001, linear scale = 1, angular scale = 0)
  Impulse metric correction: disabled  (internal load constraint = disabled)
  Impulse variational defect probe: disabled
  Impulse quadratic pressure: disabled  (scale = 1)
  Added-mass stab:   disabled
  Exact BEM geometry: disabled
  Exact singular BEM: disabled
  Legacy singular SLP diagnostic: disabled
  Phi-dot blend:     0 (off)

  Solver guidance:
    - Strong coupling: use for stiff close-coupled runs; slower but more implicit.
    - Impulse scheme: use when impulse/momentum conservation or KE drift is the focus. Recommended.
    - Added-mass stab: use for higher mesh counts (ndiv > 3) to preserve stability - deprecated.
================================================
Solver starting - good luck!

Initial state:
  Body  1
    density:          1.000000
    shape axes ratio: (1.000000, 1.000000, 0.970590)
    initial KE ratio: 0.500000
    position:         (-4.000000, 0.000000, 0.000000)
    velocity:         (-2.042053, 5.201239, 0.624232)
    angular velocity: (2.663153, -4.300222, 3.727482)
    orientation:      (w=-0.458607, i=-0.853731, j=0.244901, k=-0.029102)
  Body  2
    density:          1.000000
    shape axes ratio: (1.000000, 1.000000, 0.970590)
    initial KE ratio: 0.500000
    position:         (4.000000, 0.000000, 0.000000)
    velocity:         (-2.043217, 5.204205, 0.624588)
    angular velocity: (4.258099, -2.434690, -3.926741)
    orientation:      (w=-0.225711, i=0.372964, j=0.886076, k=0.157552)

Preparing first step: implicit scheme, no bootstrap passes required.
First step may take longer than later steps.

First step completed in 0.296 s.

Step   100/2000    5.0% | t 5.000 | ETA 3m 21s | step 0.11s | KE 273.7245 | drift +1.06% | fluid 72.8216 | solid 200.9028
  Impulse FP iterations last/mean/max 8/7.86/8
Step   200/2000   10.0% | t 10.000 | ETA 3m 9s | step 0.10s | KE 281.6834 | drift +3.99% | fluid 72.9537 | solid 208.7297
  Impulse FP iterations last/mean/max 8/7.78/8
Step   300/2000   15.0% | t 15.000 | ETA 2m 58s | step 0.10s | KE 294.2386 | drift +8.63% | fluid 73.0329 | solid 221.2057
  Impulse FP iterations last/mean/max 8/7.74/8
Step   400/2000   20.0% | t 20.000 | ETA 2m 47s | step 0.11s | KE 308.5093 | drift +13.90% | fluid 72.6825 | solid 235.8269
  Impulse FP iterations last/mean/max 8/7.71/8
Step   500/2000   25.0% | t 25.000 | ETA 2m 36s | step 0.10s | KE 320.7905 | drift +18.43% | fluid 73.1559 | solid 247.6346
  Impulse FP iterations last/mean/max 7/7.68/8
Step   600/2000   30.0% | t 30.000 | ETA 2m 25s | step 0.10s | KE 329.0791 | drift +21.49% | fluid 72.8193 | solid 256.2598
  Impulse FP iterations last/mean/max 7/7.65/8
Step   700/2000   35.0% | t 35.000 | ETA 2m 15s | step 0.11s | KE 332.3895 | drift +22.71% | fluid 72.5166 | solid 259.8729
  Impulse FP iterations last/mean/max 8/7.64/8
Step   800/2000   40.0% | t 40.000 | ETA 2m 4s | step 0.10s | KE 332.0076 | drift +22.57% | fluid 72.3804 | solid 259.6272
  Impulse FP iterations last/mean/max 7/7.63/8
Step   900/2000   45.0% | t 45.000 | ETA 1m 54s | step 0.11s | KE 331.2245 | drift +22.28% | fluid 73.1470 | solid 258.0775
  Impulse FP iterations last/mean/max 8/7.63/8
Step  1000/2000   50.0% | t 50.000 | ETA 1m 43s | step 0.10s | KE 333.5481 | drift +23.14% | fluid 72.6822 | solid 260.8660
  Impulse FP iterations last/mean/max 8/7.64/8
Step  1100/2000   55.0% | t 55.000 | ETA 1m 33s | step 0.10s | KE 337.0435 | drift +24.43% | fluid 72.5732 | solid 264.4704
  Impulse FP iterations last/mean/max 8/7.63/8
Step  1200/2000   60.0% | t 60.000 | ETA 1m 22s | step 0.10s | KE 338.7238 | drift +25.05% | fluid 72.8720 | solid 265.8519
  Impulse FP iterations last/mean/max 7/7.62/8
Step  1300/2000   65.0% | t 65.000 | ETA 1m 12s | step 0.11s | KE 337.2380 | drift +24.50% | fluid 73.0364 | solid 264.2016
  Impulse FP iterations last/mean/max 8/7.60/8
Step  1400/2000   70.0% | t 70.000 | ETA 1m 1s | step 0.10s | KE 332.1771 | drift +22.64% | fluid 72.8081 | solid 259.3689
  Impulse FP iterations last/mean/max 7/7.58/8
Step  1500/2000   75.0% | t 75.000 | ETA 51s | step 0.10s | KE 324.0854 | drift +19.65% | fluid 73.0083 | solid 251.0771
  Impulse FP iterations last/mean/max 8/7.56/8
Step  1600/2000   80.0% | t 80.000 | ETA 41s | step 0.09s | KE 314.4182 | drift +16.08% | fluid 72.9527 | solid 241.4655
  Impulse FP iterations last/mean/max 7/7.54/8
Step  1700/2000   85.0% | t 85.000 | ETA 30s | step 0.10s | KE 305.1908 | drift +12.67% | fluid 72.7243 | solid 232.4665
  Impulse FP iterations last/mean/max 7/7.54/8
Step  1800/2000   90.0% | t 90.000 | ETA 20s | step 0.10s | KE 298.2752 | drift +10.12% | fluid 72.7975 | solid 225.4777
  Impulse FP iterations last/mean/max 8/7.54/8
Step  1900/2000   95.0% | t 95.000 | ETA 10s | step 0.09s | KE 294.4244 | drift +8.70% | fluid 72.8959 | solid 221.5285
  Impulse FP iterations last/mean/max 7/7.54/8
Solver finished successfully - good job!
Results saved successfully.

================== Run summary ==================
  Bodies:            2
  Triangles / nodes: 256 / 516
  Timesteps:         2000  (dt = 0.05)
  Simulated time:    0 -> 100
  First-step setup:  0.296 s
  Mean time/step:    0.1016 s  (excl. first step)
  Total wall time:   3m 23s
  Impulse FP iters last/mean/max: 7 / 7.540 / 8
  Approx impulse solves/step:     7.540
  Impulse start cache hits/direct: 1999 / 1
  Impulse global drift P/H:       4.483842e-8 / 7.240108e-2
  Impulse per-body max drift P/H: 5.989214e-8 / 5.788458e-3
  CPU cores:         256 available, 8 Rayon worker thread(s)
  Started:           2026-06-24 02:26:26
  Finished:          2026-06-24 02:29:50
  Output file:       /work/e643/e643/shared/multi_ellip/studies/departing_sphericity_sweep/runs/spheroid_oblate/homogeneous/spheroid_oblate_homogeneous_eps0p01_rho1_E0p5_sep8_run07_impulse_noproj/multiple_body_complete.dat
================================================
