
================ Simulation setup ================
  Run label:         /work/e643/e643/shared/multi_ellip/studies/departing_sphericity_sweep/runs/triaxial/heterogeneous_sphere/triaxial_heterogeneous_sphere_eps0p001_rho1_E0p5_sep8_run03_impulse_noproj/
  Started:           2026-06-24 02:43:21
  Input file:        /work/e643/e643/shared/multi_ellip/studies/departing_sphericity_sweep/runs/triaxial/heterogeneous_sphere/triaxial_heterogeneous_sphere_eps0p001_rho1_E0p5_sep8_run03_impulse_noproj/input.txt
  Output file:       /work/e643/e643/shared/multi_ellip/studies/departing_sphericity_sweep/runs/triaxial/heterogeneous_sphere/triaxial_heterogeneous_sphere_eps0p001_rho1_E0p5_sep8_run03_impulse_noproj/multiple_body_complete.dat
  Bodies:            2
  Fluid density:     1
  Mesh:              ndiv 2 -> 256 triangles / 516 nodes
  Simulated time:    0 -> 100  (dt = 0.05, ~2000 steps)
  Output cadence:    every 1 step(s)
  Output rows:       ~2001
  Progress cadence:  every 100 step(s)
  CPU cores:         256 available, 8 Rayon worker thread(s)
  Strong coupling:   disabled
  Impulse scheme:    enabled
  Hamiltonian step:  disabled
  Hamiltonian midpt: disabled
  Variational step:  disabled
  Energy projection: disabled
  Projection particular metric: Euclidean
  Fluid KE gradient: disabled  (eps = 0.001, scale = 1, linear = 1, angular = 1)
  Fluid KE discrete gradient: disabled
  Impulse pair metric correction: disabled  (mode = pair discrete-gradient, cutoff = all pairs, inner/outer = 0/0, eps = 0.001, linear scale = 1, angular scale = 0)
  Impulse metric correction: disabled  (internal load constraint = disabled)
  Impulse variational defect probe: disabled
  Impulse quadratic pressure: disabled  (scale = 1)
  Added-mass stab:   disabled
  Exact BEM geometry: disabled
  Exact singular BEM: disabled
  Legacy singular SLP diagnostic: disabled
  Phi-dot blend:     0 (off)

  Solver guidance:
    - Strong coupling: use for stiff close-coupled runs; slower but more implicit.
    - Impulse scheme: use when impulse/momentum conservation or KE drift is the focus. Recommended.
    - Added-mass stab: use for higher mesh counts (ndiv > 3) to preserve stability - deprecated.
================================================
Solver starting - good luck!

Initial state:
  Body  1
    density:          1.000000
    shape axes ratio: (1.000000, 0.999001, 0.998003)
    initial KE ratio: 0.500000
    position:         (-4.000000, 0.000000, 0.000000)
    velocity:         (-4.597926, 3.176543, -0.583110)
    angular velocity: (-4.459503, 3.738143, 2.370134)
    orientation:      (w=0.300263, i=0.837049, j=0.429892, k=-0.156153)
  Body  2
    density:          1.000000
    shape axes ratio: (1.000000, 1.000000, 1.000000)
    initial KE ratio: 0.500000
    position:         (4.000000, 0.000000, 0.000000)
    velocity:         (-4.598754, 3.177114, -0.583215)
    angular velocity: (5.121739, 2.634019, -2.511604)
    orientation:      (w=-0.278585, i=-0.134494, j=0.286541, k=-0.906750)

Preparing first step: implicit scheme, no bootstrap passes required.
First step may take longer than later steps.

First step completed in 0.249 s.

Step   100/2000    5.0% | t 5.000 | ETA 3m 5s | step 0.10s | KE 273.5976 | drift +1.11% | fluid 72.1668 | solid 201.4308
  Impulse FP iterations last/mean/max 7/7.01/8
Step   200/2000   10.0% | t 10.000 | ETA 2m 58s | step 0.10s | KE 279.4780 | drift +3.28% | fluid 72.1518 | solid 207.3262
  Impulse FP iterations last/mean/max 7/7.11/8
Step   300/2000   15.0% | t 15.000 | ETA 2m 49s | step 0.10s | KE 288.2497 | drift +6.53% | fluid 72.1583 | solid 216.0914
  Impulse FP iterations last/mean/max 7/7.16/8
Step   400/2000   20.0% | t 20.000 | ETA 2m 40s | step 0.10s | KE 299.9333 | drift +10.84% | fluid 72.1621 | solid 227.7712
  Impulse FP iterations last/mean/max 7/7.21/8
Step   500/2000   25.0% | t 25.000 | ETA 2m 31s | step 0.12s | KE 314.5418 | drift +16.24% | fluid 72.1453 | solid 242.3965
  Impulse FP iterations last/mean/max 8/7.27/8
Step   600/2000   30.0% | t 30.000 | ETA 2m 22s | step 0.10s | KE 332.0872 | drift +22.73% | fluid 72.1550 | solid 259.9323
  Impulse FP iterations last/mean/max 7/7.32/8
Step   700/2000   35.0% | t 35.000 | ETA 2m 13s | step 0.10s | KE 352.5816 | drift +30.30% | fluid 72.1600 | solid 280.4216
  Impulse FP iterations last/mean/max 7/7.36/8
Step   800/2000   40.0% | t 40.000 | ETA 2m 3s | step 0.10s | KE 376.0430 | drift +38.97% | fluid 72.1585 | solid 303.8846
  Impulse FP iterations last/mean/max 7/7.39/8
Step   900/2000   45.0% | t 45.000 | ETA 1m 53s | step 0.10s | KE 402.4734 | drift +48.74% | fluid 72.1513 | solid 330.3221
  Impulse FP iterations last/mean/max 7/7.42/8
Step  1000/2000   50.0% | t 50.000 | ETA 1m 43s | step 0.10s | KE 431.8899 | drift +59.61% | fluid 72.1659 | solid 359.7240
  Impulse FP iterations last/mean/max 7/7.45/8
Step  1100/2000   55.0% | t 55.000 | ETA 1m 33s | step 0.10s | KE 464.2939 | drift +71.58% | fluid 72.1722 | solid 392.1217
  Impulse FP iterations last/mean/max 8/7.48/8
Step  1200/2000   60.0% | t 60.000 | ETA 1m 22s | step 0.10s | KE 499.7096 | drift +84.67% | fluid 72.1596 | solid 427.5499
  Impulse FP iterations last/mean/max 8/7.50/8
Step  1300/2000   65.0% | t 65.000 | ETA 1m 12s | step 0.10s | KE 538.1309 | drift +98.87% | fluid 72.1479 | solid 465.9830
  Impulse FP iterations last/mean/max 8/7.52/8
Step  1400/2000   70.0% | t 70.000 | ETA 1m 2s | step 0.11s | KE 579.5678 | drift +114.19% | fluid 72.1455 | solid 507.4223
  Impulse FP iterations last/mean/max 8/7.54/8
Step  1500/2000   75.0% | t 75.000 | ETA 52s | step 0.11s | KE 624.0341 | drift +130.62% | fluid 72.1436 | solid 551.8906
  Impulse FP iterations last/mean/max 8/7.55/8
Step  1600/2000   80.0% | t 80.000 | ETA 41s | step 0.11s | KE 671.5246 | drift +148.17% | fluid 72.1644 | solid 599.3602
  Impulse FP iterations last/mean/max 7/7.56/8
Step  1700/2000   85.0% | t 85.000 | ETA 31s | step 0.12s | KE 722.0637 | drift +166.85% | fluid 72.1500 | solid 649.9137
  Impulse FP iterations last/mean/max 8/7.56/8
Step  1800/2000   90.0% | t 90.000 | ETA 20s | step 0.10s | KE 775.6505 | drift +186.65% | fluid 72.1474 | solid 703.5030
  Impulse FP iterations last/mean/max 8/7.58/8
Step  1900/2000   95.0% | t 95.000 | ETA 10s | step 0.10s | KE 832.2848 | drift +207.58% | fluid 72.1595 | solid 760.1253
  Impulse FP iterations last/mean/max 8/7.59/8
Solver finished successfully - good job!
Results saved successfully.

================== Run summary ==================
  Bodies:            2
  Triangles / nodes: 256 / 516
  Timesteps:         2000  (dt = 0.05)
  Simulated time:    0 -> 100
  First-step setup:  0.249 s
  Mean time/step:    0.1036 s  (excl. first step)
  Total wall time:   3m 27s
  Impulse FP iters last/mean/max: 8 / 7.606 / 8
  Approx impulse solves/step:     7.606
  Impulse start cache hits/direct: 1999 / 1
  Impulse global drift P/H:       1.857248e-8 / 8.789796e-2
  Impulse per-body max drift P/H: 4.277887e-8 / 9.519584e-3
  CPU cores:         256 available, 8 Rayon worker thread(s)
  Started:           2026-06-24 02:43:21
  Finished:          2026-06-24 02:46:48
  Output file:       /work/e643/e643/shared/multi_ellip/studies/departing_sphericity_sweep/runs/triaxial/heterogeneous_sphere/triaxial_heterogeneous_sphere_eps0p001_rho1_E0p5_sep8_run03_impulse_noproj/multiple_body_complete.dat
================================================
