
================ Simulation setup ================
  Run label:         /work/e643/e643/shared/multi_ellip/studies/two_body_paper_sweeps/runs/spheroid_1_0p7_0p7/spheroid_1_0p7_0p7_rho10_E0p55_sep8_run04_impulse_noproj/
  Started:           2026-06-24 01:15:05
  Input file:        /work/e643/e643/shared/multi_ellip/studies/two_body_paper_sweeps/runs/spheroid_1_0p7_0p7/spheroid_1_0p7_0p7_rho10_E0p55_sep8_run04_impulse_noproj/input.txt
  Output file:       /work/e643/e643/shared/multi_ellip/studies/two_body_paper_sweeps/runs/spheroid_1_0p7_0p7/spheroid_1_0p7_0p7_rho10_E0p55_sep8_run04_impulse_noproj/multiple_body_complete.dat
  Bodies:            2
  Fluid density:     1
  Mesh:              ndiv 2 -> 256 triangles / 516 nodes
  Simulated time:    0 -> 100  (dt = 0.05, ~2000 steps)
  Output cadence:    every 1 step(s)
  Output rows:       ~2001
  Progress cadence:  every 100 step(s)
  CPU cores:         256 available, 8 Rayon worker thread(s)
  Strong coupling:   disabled
  Impulse scheme:    enabled
  Hamiltonian step:  disabled
  Hamiltonian midpt: disabled
  Variational step:  disabled
  Energy projection: disabled
  Projection particular metric: Euclidean
  Fluid KE gradient: disabled  (eps = 0.001, scale = 1, linear = 1, angular = 1)
  Fluid KE discrete gradient: disabled
  Impulse pair metric correction: disabled  (mode = pair discrete-gradient, cutoff = all pairs, inner/outer = 0/0, eps = 0.001, linear scale = 1, angular scale = 0)
  Impulse metric correction: disabled  (internal load constraint = disabled)
  Impulse variational defect probe: disabled
  Impulse quadratic pressure: disabled  (scale = 1)
  Added-mass stab:   disabled
  Exact BEM geometry: disabled
  Exact singular BEM: disabled
  Legacy singular SLP diagnostic: disabled
  Phi-dot blend:     0 (off)

  Solver guidance:
    - Strong coupling: use for stiff close-coupled runs; slower but more implicit.
    - Impulse scheme: use when impulse/momentum conservation or KE drift is the focus. Recommended.
    - Added-mass stab: use for higher mesh counts (ndiv > 3) to preserve stability - deprecated.
================================================
Solver starting - good luck!

Initial state:
  Body  1
    density:          10.000000
    shape axes ratio: (1.000000, 0.700000, 0.700000)
    initial KE ratio: 0.550000
    position:         (-4.000000, 0.000000, 0.000000)
    velocity:         (-4.297933, 2.480974, 1.718097)
    angular velocity: (-4.786389, 3.795067, -1.471858)
    orientation:      (w=-0.357207, i=0.477531, j=-0.720460, k=-0.353984)
  Body  2
    density:          10.000000
    shape axes ratio: (1.000000, 0.700000, 0.700000)
    initial KE ratio: 0.550000
    position:         (4.000000, 0.000000, 0.000000)
    velocity:         (-4.303651, 2.484275, 1.720383)
    angular velocity: (-4.760611, -3.911723, 1.230216)
    orientation:      (w=0.882661, i=0.299705, j=0.084415, k=0.352081)

Preparing first step: implicit scheme, no bootstrap passes required.
First step may take longer than later steps.

First step completed in 7.403 s.

Step   100/2000    5.0% | t 5.000 | ETA 2m 58s | step 0.10s | KE 1900.4579 | drift +0.15% | fluid 76.8100 | solid 1823.6479
  Impulse FP iterations last/mean/max 7/6.71/7
Step   200/2000   10.0% | t 10.000 | ETA 2m 50s | step 0.10s | KE 1905.4106 | drift +0.41% | fluid 76.5204 | solid 1828.8902
  Impulse FP iterations last/mean/max 7/6.72/7
Step   300/2000   15.0% | t 15.000 | ETA 2m 41s | step 0.10s | KE 1909.3922 | drift +0.62% | fluid 76.2769 | solid 1833.1153
  Impulse FP iterations last/mean/max 7/6.71/7
Step   400/2000   20.0% | t 20.000 | ETA 2m 32s | step 0.09s | KE 1910.6397 | drift +0.69% | fluid 78.1039 | solid 1832.5357
  Impulse FP iterations last/mean/max 7/6.73/7
Step   500/2000   25.0% | t 25.000 | ETA 2m 22s | step 0.10s | KE 1909.5262 | drift +0.63% | fluid 73.5109 | solid 1836.0153
  Impulse FP iterations last/mean/max 7/6.71/7
Step   600/2000   30.0% | t 30.000 | ETA 2m 13s | step 0.10s | KE 1907.2028 | drift +0.51% | fluid 78.9356 | solid 1828.2672
  Impulse FP iterations last/mean/max 7/6.72/7
Step   700/2000   35.0% | t 35.000 | ETA 2m 3s | step 0.10s | KE 1904.8903 | drift +0.39% | fluid 74.4388 | solid 1830.4515
  Impulse FP iterations last/mean/max 7/6.72/7
Step   800/2000   40.0% | t 40.000 | ETA 1m 54s | step 0.10s | KE 1903.5129 | drift +0.31% | fluid 78.6269 | solid 1824.8860
  Impulse FP iterations last/mean/max 7/6.73/7
Step   900/2000   45.0% | t 45.000 | ETA 1m 44s | step 0.11s | KE 1903.9592 | drift +0.34% | fluid 77.2489 | solid 1826.7103
  Impulse FP iterations last/mean/max 7/6.72/7
Step  1000/2000   50.0% | t 50.000 | ETA 1m 35s | step 0.09s | KE 1905.9059 | drift +0.44% | fluid 76.0529 | solid 1829.8531
  Impulse FP iterations last/mean/max 7/6.72/7
Step  1100/2000   55.0% | t 55.000 | ETA 1m 25s | step 0.10s | KE 1908.1379 | drift +0.56% | fluid 77.2777 | solid 1830.8602
  Impulse FP iterations last/mean/max 7/6.73/7
Step  1200/2000   60.0% | t 60.000 | ETA 1m 16s | step 0.10s | KE 1909.3398 | drift +0.62% | fluid 76.1476 | solid 1833.1922
  Impulse FP iterations last/mean/max 7/6.72/7
Step  1300/2000   65.0% | t 65.000 | ETA 1m 6s | step 0.10s | KE 1909.1711 | drift +0.61% | fluid 75.7335 | solid 1833.4376
  Impulse FP iterations last/mean/max 7/6.72/7
Step  1400/2000   70.0% | t 70.000 | ETA 57s | step 0.10s | KE 1908.1019 | drift +0.56% | fluid 77.8289 | solid 1830.2731
  Impulse FP iterations last/mean/max 7/6.72/7
Step  1500/2000   75.0% | t 75.000 | ETA 47s | step 0.09s | KE 1906.8510 | drift +0.49% | fluid 74.1472 | solid 1832.7038
  Impulse FP iterations last/mean/max 7/6.72/7
Step  1600/2000   80.0% | t 80.000 | ETA 37s | step 0.09s | KE 1905.8473 | drift +0.44% | fluid 78.2645 | solid 1827.5829
  Impulse FP iterations last/mean/max 7/6.72/7
Step  1700/2000   85.0% | t 85.000 | ETA 28s | step 0.08s | KE 1905.5808 | drift +0.42% | fluid 73.6344 | solid 1831.9464
  Impulse FP iterations last/mean/max 7/6.72/7
Step  1800/2000   90.0% | t 90.000 | ETA 18s | step 0.09s | KE 1906.0741 | drift +0.45% | fluid 77.6898 | solid 1828.3844
  Impulse FP iterations last/mean/max 7/6.72/7
Step  1900/2000   95.0% | t 95.000 | ETA 9s | step 0.10s | KE 1907.3727 | drift +0.52% | fluid 73.1511 | solid 1834.2216
  Impulse FP iterations last/mean/max 7/6.72/7
Solver finished successfully - good job!
Results saved successfully.

================== Run summary ==================
  Bodies:            2
  Triangles / nodes: 256 / 516
  Timesteps:         2000  (dt = 0.05)
  Simulated time:    0 -> 100
  First-step setup:  7.403 s
  Mean time/step:    0.0932 s  (excl. first step)
  Total wall time:   3m 13s
  Impulse FP iters last/mean/max: 7 / 6.717 / 7
  Approx impulse solves/step:     6.717
  Impulse start cache hits/direct: 1999 / 1
  Impulse global drift P/H:       1.290402e-9 / 2.210508e-2
  Impulse per-body max drift P/H: 1.791288e-9 / 5.014135e-3
  CPU cores:         256 available, 8 Rayon worker thread(s)
  Started:           2026-06-24 01:15:05
  Finished:          2026-06-24 01:18:20
  Output file:       /work/e643/e643/shared/multi_ellip/studies/two_body_paper_sweeps/runs/spheroid_1_0p7_0p7/spheroid_1_0p7_0p7_rho10_E0p55_sep8_run04_impulse_noproj/multiple_body_complete.dat
================================================
