
================ Simulation setup ================
  Run label:         /work/e643/e643/shared/multi_ellip/studies/multibody_convergence_sweep/runs/periodic_grid_ellipsoid_1_0p8_0p6_rho4_E1_sep8_nd4_dt0p05/
  Started:           2026-06-22 19:37:46
  Input file:        /work/e643/e643/shared/multi_ellip/studies/multibody_convergence_sweep/runs/periodic_grid_ellipsoid_1_0p8_0p6_rho4_E1_sep8_nd4_dt0p05/input.txt
  Output file:       /work/e643/e643/shared/multi_ellip/studies/multibody_convergence_sweep/runs/periodic_grid_ellipsoid_1_0p8_0p6_rho4_E1_sep8_nd4_dt0p05/multiple_body_complete.dat
  Bodies:            2
  Fluid density:     1
  Mesh:              ndiv 4 -> 4096 triangles / 8196 nodes
  Simulated time:    0 -> 10  (dt = 0.05, ~200 steps)
  Output cadence:    every 1 step(s)
  Output rows:       ~201
  Progress cadence:  every 20 step(s)
  CPU cores:         256 available, 16 Rayon worker thread(s)
  Strong coupling:   disabled
  Impulse scheme:    enabled
  Hamiltonian step:  disabled
  Hamiltonian midpt: disabled
  Variational step:  disabled
  Energy projection: disabled
  Projection particular metric: Euclidean
  Fluid KE gradient: disabled  (eps = 0.001, scale = 1, linear = 1, angular = 1)
  Fluid KE discrete gradient: disabled
  Impulse pair metric correction: disabled  (mode = pair discrete-gradient, cutoff = all pairs, inner/outer = 0/0, eps = 0.001, linear scale = 1, angular scale = 0)
  Impulse metric correction: disabled  (internal load constraint = disabled)
  Impulse variational defect probe: disabled
  Impulse quadratic pressure: disabled  (scale = 1)
  Added-mass stab:   disabled
  Exact BEM geometry: disabled
  Exact singular BEM: disabled
  Legacy singular SLP diagnostic: disabled
  Phi-dot blend:     0 (off)

  Solver guidance:
    - Strong coupling: use for stiff close-coupled runs; slower but more implicit.
    - Impulse scheme: use when impulse/momentum conservation or KE drift is the focus. Recommended.
    - Added-mass stab: use for higher mesh counts (ndiv > 3) to preserve stability - deprecated.
================================================
Solver starting - good luck!

Initial state:
  Body  1
    density:          4.000000
    shape axes ratio: (1.000000, 0.800000, 0.600000)
    initial KE ratio: 1.000000
    position:         (-4.000000, 0.000000, 0.000000)
    velocity:         (0.174543, 4.104762, 0.474155)
    angular velocity: (2.720646, 5.202489, 2.238439)
    orientation:      (w=0.447214, i=0.894427, j=0.000000, k=0.000000)
  Body  2
    density:          4.000000
    shape axes ratio: (1.000000, 0.800000, 0.600000)
    initial KE ratio: 1.000000
    position:         (4.000000, 0.000000, 0.000000)
    velocity:         (0.181000, 4.256631, 0.491698)
    angular velocity: (2.224233, 4.308686, -3.995801)
    orientation:      (w=0.707107, i=0.000000, j=0.707107, k=0.000000)

Preparing first step: implicit scheme, no bootstrap passes required.
First step may take longer than later steps.

First step completed in 38.623 s.

Step    20/200    10.0% | t 1.000 | ETA 36m 23s | step 12.04s | KE 644.6809 | drift +0.00% | fluid 49.3690 | solid 595.3118
  Impulse FP iterations last/mean/max 9/8.75/9
Step    40/200    20.0% | t 2.000 | ETA 31m 35s | step 13.22s | KE 644.3284 | drift -0.05% | fluid 60.7131 | solid 583.6153
  Impulse FP iterations last/mean/max 9/8.70/9
Step    60/200    30.0% | t 3.000 | ETA 28m 20s | step 13.01s | KE 644.5725 | drift -0.01% | fluid 49.1781 | solid 595.3944
  Impulse FP iterations last/mean/max 9/8.65/9
Step    80/200    40.0% | t 4.000 | ETA 24m 41s | step 12.15s | KE 644.7194 | drift +0.01% | fluid 42.5097 | solid 602.2097
  Impulse FP iterations last/mean/max 8/8.68/9
Step   100/200    50.0% | t 5.000 | ETA 20m 46s | step 13.22s | KE 644.7080 | drift +0.01% | fluid 50.1104 | solid 594.5976
  Impulse FP iterations last/mean/max 9/8.69/9
Step   120/200    60.0% | t 6.000 | ETA 16m 39s | step 12.23s | KE 644.8224 | drift +0.03% | fluid 45.0227 | solid 599.7998
  Impulse FP iterations last/mean/max 8/8.66/9
Step   140/200    70.0% | t 7.000 | ETA 12m 32s | step 13.16s | KE 644.7990 | drift +0.02% | fluid 53.6478 | solid 591.1512
  Impulse FP iterations last/mean/max 9/8.66/9
Step   160/200    80.0% | t 8.000 | ETA 8m 22s | step 13.09s | KE 644.9064 | drift +0.04% | fluid 59.6862 | solid 585.2202
  Impulse FP iterations last/mean/max 9/8.64/9
Step   180/200    90.0% | t 9.000 | ETA 4m 11s | step 13.16s | KE 645.4909 | drift +0.13% | fluid 51.1780 | solid 594.3128
  Impulse FP iterations last/mean/max 9/8.64/9
Solver finished successfully - good job!
Results saved successfully.

================== Run summary ==================
  Bodies:            2
  Triangles / nodes: 4096 / 8196
  Timesteps:         200  (dt = 0.05)
  Simulated time:    0 -> 10
  First-step setup:  38.623 s
  Mean time/step:    12.6167 s  (excl. first step)
  Total wall time:   42m 29s
  Impulse FP iters last/mean/max: 8 / 8.650 / 9
  Approx impulse solves/step:     8.655
  Impulse start cache hits/direct: 199 / 1
  Impulse global drift P/H:       6.366667e-10 / 6.084116e-3
  Impulse per-body max drift P/H: 9.025128e-10 / 1.457843e-3
  CPU cores:         256 available, 16 Rayon worker thread(s)
  Started:           2026-06-22 19:37:46
  Finished:          2026-06-22 20:20:16
  Output file:       /work/e643/e643/shared/multi_ellip/studies/multibody_convergence_sweep/runs/periodic_grid_ellipsoid_1_0p8_0p6_rho4_E1_sep8_nd4_dt0p05/multiple_body_complete.dat
================================================
