
================ Simulation setup ================
  Run label:         /work/e643/e643/shared/multi_ellip/studies/two_body_paper_sweeps/runs/ellipsoid_1_0p8_0p6/ellipsoid_1_0p8_0p6_rho0p3_E0p2_sep11_run02_impulse_noproj/
  Started:           2026-06-22 19:40:05
  Input file:        /work/e643/e643/shared/multi_ellip/studies/two_body_paper_sweeps/runs/ellipsoid_1_0p8_0p6/ellipsoid_1_0p8_0p6_rho0p3_E0p2_sep11_run02_impulse_noproj/input.txt
  Output file:       /work/e643/e643/shared/multi_ellip/studies/two_body_paper_sweeps/runs/ellipsoid_1_0p8_0p6/ellipsoid_1_0p8_0p6_rho0p3_E0p2_sep11_run02_impulse_noproj/multiple_body_complete.dat
  Bodies:            2
  Fluid density:     1
  Mesh:              ndiv 2 -> 256 triangles / 516 nodes
  Simulated time:    0 -> 100  (dt = 0.05, ~2000 steps)
  Output cadence:    every 1 step(s)
  Output rows:       ~2001
  Progress cadence:  every 100 step(s)
  CPU cores:         256 available, 8 Rayon worker thread(s)
  Strong coupling:   disabled
  Impulse scheme:    enabled
  Hamiltonian step:  disabled
  Hamiltonian midpt: disabled
  Variational step:  disabled
  Energy projection: disabled
  Projection particular metric: Euclidean
  Fluid KE gradient: disabled  (eps = 0.001, scale = 1, linear = 1, angular = 1)
  Fluid KE discrete gradient: disabled
  Impulse pair metric correction: disabled  (mode = pair discrete-gradient, cutoff = all pairs, inner/outer = 0/0, eps = 0.001, linear scale = 1, angular scale = 0)
  Impulse metric correction: disabled  (internal load constraint = disabled)
  Impulse variational defect probe: disabled
  Impulse quadratic pressure: disabled  (scale = 1)
  Added-mass stab:   disabled
  Exact BEM geometry: disabled
  Exact singular BEM: disabled
  Legacy singular SLP diagnostic: disabled
  Phi-dot blend:     0 (off)

  Solver guidance:
    - Strong coupling: use for stiff close-coupled runs; slower but more implicit.
    - Impulse scheme: use when impulse/momentum conservation or KE drift is the focus. Recommended.
    - Added-mass stab: use for higher mesh counts (ndiv > 3) to preserve stability - deprecated.
================================================
Solver starting - good luck!

Initial state:
  Body  1
    density:          0.300000
    shape axes ratio: (1.000000, 0.800000, 0.600000)
    initial KE ratio: 0.200000
    position:         (-5.500000, 0.000000, 0.000000)
    velocity:         (6.327387, -6.811744, 0.960670)
    angular velocity: (3.567040, 3.298501, 3.984286)
    orientation:      (w=0.577350, i=0.577350, j=0.577350, k=0.000000)
  Body  2
    density:          0.300000
    shape axes ratio: (1.000000, 0.800000, 0.600000)
    initial KE ratio: 0.200000
    position:         (5.500000, 0.000000, 0.000000)
    velocity:         (5.602444, -6.031307, 0.850604)
    angular velocity: (5.708584, 2.606441, 0.311360)
    orientation:      (w=0.577350, i=-0.577350, j=0.000000, k=0.577350)

Preparing first step: implicit scheme, no bootstrap passes required.
First step may take longer than later steps.

First step completed in 0.360 s.

Step   100/2000    5.0% | t 5.000 | ETA 6m 49s | step 0.20s | KE 386.1193 | drift +0.02% | fluid 266.4738 | solid 119.6454
  Impulse FP iterations last/mean/max 15/15.66/18
Step   200/2000   10.0% | t 10.000 | ETA 6m 27s | step 0.20s | KE 386.6307 | drift +0.16% | fluid 266.0381 | solid 120.5926
  Impulse FP iterations last/mean/max 15/15.74/18
Step   300/2000   15.0% | t 15.000 | ETA 6m 3s | step 0.20s | KE 387.9643 | drift +0.50% | fluid 264.9624 | solid 123.0019
  Impulse FP iterations last/mean/max 14/15.71/18
Step   400/2000   20.0% | t 20.000 | ETA 5m 40s | step 0.20s | KE 387.3812 | drift +0.35% | fluid 262.9869 | solid 124.3943
  Impulse FP iterations last/mean/max 16/15.71/18
Step   500/2000   25.0% | t 25.000 | ETA 5m 18s | step 0.22s | KE 387.3033 | drift +0.33% | fluid 263.3456 | solid 123.9577
  Impulse FP iterations last/mean/max 17/15.72/18
Step   600/2000   30.0% | t 30.000 | ETA 4m 57s | step 0.20s | KE 387.2270 | drift +0.31% | fluid 264.9646 | solid 122.2624
  Impulse FP iterations last/mean/max 15/15.71/18
Step   700/2000   35.0% | t 35.000 | ETA 4m 35s | step 0.22s | KE 386.9396 | drift +0.24% | fluid 265.4452 | solid 121.4944
  Impulse FP iterations last/mean/max 15/15.71/18
Step   800/2000   40.0% | t 40.000 | ETA 4m 14s | step 0.20s | KE 386.6515 | drift +0.16% | fluid 264.7048 | solid 121.9467
  Impulse FP iterations last/mean/max 15/15.71/18
Step   900/2000   45.0% | t 45.000 | ETA 3m 52s | step 0.22s | KE 386.0020 | drift -0.01% | fluid 263.9689 | solid 122.0331
  Impulse FP iterations last/mean/max 16/15.71/18
Step  1000/2000   50.0% | t 50.000 | ETA 3m 30s | step 0.23s | KE 385.7660 | drift -0.07% | fluid 263.9363 | solid 121.8297
  Impulse FP iterations last/mean/max 16/15.71/18
Step  1100/2000   55.0% | t 55.000 | ETA 3m 9s | step 0.18s | KE 386.1778 | drift +0.04% | fluid 263.9687 | solid 122.2091
  Impulse FP iterations last/mean/max 15/15.71/18
Step  1200/2000   60.0% | t 60.000 | ETA 2m 47s | step 0.19s | KE 386.4306 | drift +0.11% | fluid 264.0687 | solid 122.3619
  Impulse FP iterations last/mean/max 16/15.71/18
Step  1300/2000   65.0% | t 65.000 | ETA 2m 26s | step 0.19s | KE 386.1524 | drift +0.03% | fluid 264.9959 | solid 121.1564
  Impulse FP iterations last/mean/max 15/15.72/18
Step  1400/2000   70.0% | t 70.000 | ETA 2m 4s | step 0.16s | KE 385.2745 | drift -0.19% | fluid 266.4569 | solid 118.8177
  Impulse FP iterations last/mean/max 15/15.72/18
Step  1500/2000   75.0% | t 75.000 | ETA 1m 42s | step 0.15s | KE 385.0226 | drift -0.26% | fluid 266.9412 | solid 118.0814
  Impulse FP iterations last/mean/max 16/15.72/18
Step  1600/2000   80.0% | t 80.000 | ETA 1m 20s | step 0.16s | KE 385.1914 | drift -0.22% | fluid 266.4271 | solid 118.7643
  Impulse FP iterations last/mean/max 16/15.73/18
Step  1700/2000   85.0% | t 85.000 | ETA 59s | step 0.16s | KE 385.2788 | drift -0.19% | fluid 266.0559 | solid 119.2229
  Impulse FP iterations last/mean/max 16/15.72/18
Step  1800/2000   90.0% | t 90.000 | ETA 39s | step 0.17s | KE 385.3931 | drift -0.16% | fluid 265.7572 | solid 119.6359
  Impulse FP iterations last/mean/max 17/15.73/18
Step  1900/2000   95.0% | t 95.000 | ETA 19s | step 0.14s | KE 385.4640 | drift -0.15% | fluid 264.9781 | solid 120.4859
  Impulse FP iterations last/mean/max 16/15.73/18
Solver finished successfully - good job!
Results saved successfully.

================== Run summary ==================
  Bodies:            2
  Triangles / nodes: 256 / 516
  Timesteps:         2000  (dt = 0.05)
  Simulated time:    0 -> 100
  First-step setup:  0.360 s
  Mean time/step:    0.1915 s  (excl. first step)
  Total wall time:   6m 23s
  Impulse FP iters last/mean/max: 16 / 15.727 / 18
  Approx impulse solves/step:     15.728
  Impulse start cache hits/direct: 1999 / 1
  Impulse global drift P/H:       1.164175e-8 / 4.101647e-3
  Impulse per-body max drift P/H: 4.792090e-8 / 5.028759e-4
  CPU cores:         256 available, 8 Rayon worker thread(s)
  Started:           2026-06-22 19:40:05
  Finished:          2026-06-22 19:46:29
  Output file:       /work/e643/e643/shared/multi_ellip/studies/two_body_paper_sweeps/runs/ellipsoid_1_0p8_0p6/ellipsoid_1_0p8_0p6_rho0p3_E0p2_sep11_run02_impulse_noproj/multiple_body_complete.dat
================================================
