
================ Simulation setup ================
  Run label:         /work/e643/e643/shared/multi_ellip/studies/departing_sphericity_sweep/runs/spheroid_oblate/homogeneous/spheroid_oblate_homogeneous_eps0p001_rho1_E0p5_sep8_run09_impulse_noproj/
  Started:           2026-06-24 02:26:24
  Input file:        /work/e643/e643/shared/multi_ellip/studies/departing_sphericity_sweep/runs/spheroid_oblate/homogeneous/spheroid_oblate_homogeneous_eps0p001_rho1_E0p5_sep8_run09_impulse_noproj/input.txt
  Output file:       /work/e643/e643/shared/multi_ellip/studies/departing_sphericity_sweep/runs/spheroid_oblate/homogeneous/spheroid_oblate_homogeneous_eps0p001_rho1_E0p5_sep8_run09_impulse_noproj/multiple_body_complete.dat
  Bodies:            2
  Fluid density:     1
  Mesh:              ndiv 2 -> 256 triangles / 516 nodes
  Simulated time:    0 -> 100  (dt = 0.05, ~2000 steps)
  Output cadence:    every 1 step(s)
  Output rows:       ~2001
  Progress cadence:  every 100 step(s)
  CPU cores:         256 available, 8 Rayon worker thread(s)
  Strong coupling:   disabled
  Impulse scheme:    enabled
  Hamiltonian step:  disabled
  Hamiltonian midpt: disabled
  Variational step:  disabled
  Energy projection: disabled
  Projection particular metric: Euclidean
  Fluid KE gradient: disabled  (eps = 0.001, scale = 1, linear = 1, angular = 1)
  Fluid KE discrete gradient: disabled
  Impulse pair metric correction: disabled  (mode = pair discrete-gradient, cutoff = all pairs, inner/outer = 0/0, eps = 0.001, linear scale = 1, angular scale = 0)
  Impulse metric correction: disabled  (internal load constraint = disabled)
  Impulse variational defect probe: disabled
  Impulse quadratic pressure: disabled  (scale = 1)
  Added-mass stab:   disabled
  Exact BEM geometry: disabled
  Exact singular BEM: disabled
  Legacy singular SLP diagnostic: disabled
  Phi-dot blend:     0 (off)

  Solver guidance:
    - Strong coupling: use for stiff close-coupled runs; slower but more implicit.
    - Impulse scheme: use when impulse/momentum conservation or KE drift is the focus. Recommended.
    - Added-mass stab: use for higher mesh counts (ndiv > 3) to preserve stability - deprecated.
================================================
Solver starting - good luck!

Initial state:
  Body  1
    density:          1.000000
    shape axes ratio: (1.000000, 1.000000, 0.997006)
    initial KE ratio: 0.500000
    position:         (-4.000000, 0.000000, 0.000000)
    velocity:         (2.760847, -2.943359, 3.907896)
    angular velocity: (-0.126976, -6.080649, 1.577340)
    orientation:      (w=-0.403169, i=0.663253, j=-0.484816, k=-0.403118)
  Body  2
    density:          1.000000
    shape axes ratio: (1.000000, 1.000000, 0.997006)
    initial KE ratio: 0.500000
    position:         (4.000000, 0.000000, 0.000000)
    velocity:         (2.761123, -2.943653, 3.908286)
    angular velocity: (-4.594154, 3.640511, -2.262488)
    orientation:      (w=0.015596, i=0.900946, j=0.238879, k=0.361926)

Preparing first step: implicit scheme, no bootstrap passes required.
First step may take longer than later steps.

First step completed in 0.221 s.

Step   100/2000    5.0% | t 5.000 | ETA 2m 58s | step 0.10s | KE 268.9909 | drift -0.66% | fluid 72.4118 | solid 196.5791
  Impulse FP iterations last/mean/max 7/7.25/8
Step   200/2000   10.0% | t 10.000 | ETA 2m 55s | step 0.10s | KE 270.3257 | drift -0.17% | fluid 72.4075 | solid 197.9182
  Impulse FP iterations last/mean/max 8/7.49/8
Step   300/2000   15.0% | t 15.000 | ETA 2m 48s | step 0.10s | KE 274.9424 | drift +1.53% | fluid 72.4210 | solid 202.5213
  Impulse FP iterations last/mean/max 8/7.62/8
Step   400/2000   20.0% | t 20.000 | ETA 2m 41s | step 0.10s | KE 282.9485 | drift +4.49% | fluid 72.4164 | solid 210.5320
  Impulse FP iterations last/mean/max 8/7.71/8
Step   500/2000   25.0% | t 25.000 | ETA 2m 32s | step 0.11s | KE 294.3469 | drift +8.70% | fluid 72.4031 | solid 221.9438
  Impulse FP iterations last/mean/max 8/7.77/8
Step   600/2000   30.0% | t 30.000 | ETA 2m 23s | step 0.10s | KE 309.0483 | drift +14.13% | fluid 72.3886 | solid 236.6597
  Impulse FP iterations last/mean/max 8/7.81/8
Step   700/2000   35.0% | t 35.000 | ETA 2m 14s | step 0.10s | KE 326.9048 | drift +20.72% | fluid 72.4308 | solid 254.4740
  Impulse FP iterations last/mean/max 8/7.84/8
Step   800/2000   40.0% | t 40.000 | ETA 2m 4s | step 0.10s | KE 347.7956 | drift +28.44% | fluid 72.4092 | solid 275.3864
  Impulse FP iterations last/mean/max 8/7.86/8
Step   900/2000   45.0% | t 45.000 | ETA 1m 53s | step 0.10s | KE 371.5799 | drift +37.22% | fluid 72.4323 | solid 299.1475
  Impulse FP iterations last/mean/max 8/7.87/8
Step  1000/2000   50.0% | t 50.000 | ETA 1m 43s | step 0.11s | KE 398.1887 | drift +47.05% | fluid 72.3952 | solid 325.7935
  Impulse FP iterations last/mean/max 8/7.88/8
Step  1100/2000   55.0% | t 55.000 | ETA 1m 33s | step 0.10s | KE 427.5210 | drift +57.88% | fluid 72.3971 | solid 355.1239
  Impulse FP iterations last/mean/max 8/7.89/8
Step  1200/2000   60.0% | t 60.000 | ETA 1m 23s | step 0.11s | KE 459.5232 | drift +69.70% | fluid 72.4298 | solid 387.0935
  Impulse FP iterations last/mean/max 8/7.90/8
Step  1300/2000   65.0% | t 65.000 | ETA 1m 13s | step 0.10s | KE 494.1992 | drift +82.50% | fluid 72.3939 | solid 421.8053
  Impulse FP iterations last/mean/max 8/7.90/8
Step  1400/2000   70.0% | t 70.000 | ETA 1m 2s | step 0.10s | KE 531.4657 | drift +96.27% | fluid 72.3930 | solid 459.0727
  Impulse FP iterations last/mean/max 8/7.90/8
Step  1500/2000   75.0% | t 75.000 | ETA 52s | step 0.11s | KE 571.2703 | drift +110.96% | fluid 72.4382 | solid 498.8321
  Impulse FP iterations last/mean/max 8/7.89/8
Step  1600/2000   80.0% | t 80.000 | ETA 41s | step 0.10s | KE 613.6764 | drift +126.63% | fluid 72.3934 | solid 541.2830
  Impulse FP iterations last/mean/max 7/7.88/8
Step  1700/2000   85.0% | t 85.000 | ETA 31s | step 0.10s | KE 658.5495 | drift +143.20% | fluid 72.4057 | solid 586.1437
  Impulse FP iterations last/mean/max 7/7.86/8
Step  1800/2000   90.0% | t 90.000 | ETA 20s | step 0.09s | KE 705.9279 | drift +160.69% | fluid 72.3863 | solid 633.5416
  Impulse FP iterations last/mean/max 7/7.84/8
Step  1900/2000   95.0% | t 95.000 | ETA 10s | step 0.09s | KE 755.6809 | drift +179.07% | fluid 72.4395 | solid 683.2415
  Impulse FP iterations last/mean/max 7/7.81/8
Solver finished successfully - good job!
Results saved successfully.

================== Run summary ==================
  Bodies:            2
  Triangles / nodes: 256 / 516
  Timesteps:         2000  (dt = 0.05)
  Simulated time:    0 -> 100
  First-step setup:  0.221 s
  Mean time/step:    0.1024 s  (excl. first step)
  Total wall time:   3m 24s
  Impulse FP iters last/mean/max: 8 / 7.789 / 8
  Approx impulse solves/step:     7.789
  Impulse start cache hits/direct: 1999 / 1
  Impulse global drift P/H:       1.557701e-8 / 9.056760e-2
  Impulse per-body max drift P/H: 2.247253e-8 / 5.638360e-3
  CPU cores:         256 available, 8 Rayon worker thread(s)
  Started:           2026-06-24 02:26:24
  Finished:          2026-06-24 02:29:50
  Output file:       /work/e643/e643/shared/multi_ellip/studies/departing_sphericity_sweep/runs/spheroid_oblate/homogeneous/spheroid_oblate_homogeneous_eps0p001_rho1_E0p5_sep8_run09_impulse_noproj/multiple_body_complete.dat
================================================
