
================ Simulation setup ================
  Run label:         /work/e643/e643/shared/multi_ellip/studies/two_body_paper_sweeps/runs/ellipsoid_1_0p8_0p6/ellipsoid_1_0p8_0p6_rho0p03_E1p5_sep5_run03_impulse_noproj/
  Started:           2026-06-24 02:36:26
  Input file:        /work/e643/e643/shared/multi_ellip/studies/two_body_paper_sweeps/runs/ellipsoid_1_0p8_0p6/ellipsoid_1_0p8_0p6_rho0p03_E1p5_sep5_run03_impulse_noproj/input.txt
  Output file:       /work/e643/e643/shared/multi_ellip/studies/two_body_paper_sweeps/runs/ellipsoid_1_0p8_0p6/ellipsoid_1_0p8_0p6_rho0p03_E1p5_sep5_run03_impulse_noproj/multiple_body_complete.dat
  Bodies:            2
  Fluid density:     1
  Mesh:              ndiv 2 -> 256 triangles / 516 nodes
  Simulated time:    0 -> 100  (dt = 0.05, ~2000 steps)
  Output cadence:    every 1 step(s)
  Output rows:       ~2001
  Progress cadence:  every 100 step(s)
  CPU cores:         256 available, 8 Rayon worker thread(s)
  Strong coupling:   disabled
  Impulse scheme:    enabled
  Hamiltonian step:  disabled
  Hamiltonian midpt: disabled
  Variational step:  disabled
  Energy projection: disabled
  Projection particular metric: Euclidean
  Fluid KE gradient: disabled  (eps = 0.001, scale = 1, linear = 1, angular = 1)
  Fluid KE discrete gradient: disabled
  Impulse pair metric correction: disabled  (mode = pair discrete-gradient, cutoff = all pairs, inner/outer = 0/0, eps = 0.001, linear scale = 1, angular scale = 0)
  Impulse metric correction: disabled  (internal load constraint = disabled)
  Impulse variational defect probe: disabled
  Impulse quadratic pressure: disabled  (scale = 1)
  Added-mass stab:   disabled
  Exact BEM geometry: disabled
  Exact singular BEM: disabled
  Legacy singular SLP diagnostic: disabled
  Phi-dot blend:     0 (off)

  Solver guidance:
    - Strong coupling: use for stiff close-coupled runs; slower but more implicit.
    - Impulse scheme: use when impulse/momentum conservation or KE drift is the focus. Recommended.
    - Added-mass stab: use for higher mesh counts (ndiv > 3) to preserve stability - deprecated.
================================================
Solver starting - good luck!

Initial state:
  Body  1
    density:          0.030000
    shape axes ratio: (1.000000, 0.800000, 0.600000)
    initial KE ratio: 1.500000
    position:         (-2.500000, 0.000000, 0.000000)
    velocity:         (2.675777, 1.787662, 0.899918)
    angular velocity: (4.450793, -1.614345, -4.130708)
    orientation:      (w=-0.211064, i=-0.676192, j=0.690176, k=-0.147899)
  Body  2
    density:          0.030000
    shape axes ratio: (1.000000, 0.800000, 0.600000)
    initial KE ratio: 1.500000
    position:         (2.500000, 0.000000, 0.000000)
    velocity:         (2.624490, 1.753398, 0.882669)
    angular velocity: (-4.839709, -1.143861, -3.840210)
    orientation:      (w=0.869753, i=0.375704, j=-0.301242, k=-0.107841)

Preparing first step: implicit scheme, no bootstrap passes required.
First step may take longer than later steps.

First step completed in 0.503 s.

Step   100/2000    5.0% | t 5.000 | ETA 12m 54s | step 0.38s | KE 38.6057 | drift -0.71% | fluid 34.6534 | solid 3.9523
  Impulse FP iterations last/mean/max 30/29.56/30
Step   200/2000   10.0% | t 10.000 | ETA 11m 39s | step 0.31s | KE 38.6646 | drift -0.56% | fluid 33.3964 | solid 5.2683
  Impulse FP iterations last/mean/max 27/29.57/30
Step   300/2000   15.0% | t 15.000 | ETA 10m 53s | step 0.35s | KE 38.4923 | drift -1.00% | fluid 34.3458 | solid 4.1464
  Impulse FP iterations last/mean/max 28/29.63/30
Step   400/2000   20.0% | t 20.000 | ETA 10m 10s | step 0.37s | KE 38.3163 | drift -1.45% | fluid 34.4742 | solid 3.8421
  Impulse FP iterations last/mean/max 30/29.66/30
Step   500/2000   25.0% | t 25.000 | ETA 9m 26s | step 0.36s | KE 38.6061 | drift -0.71% | fluid 35.0413 | solid 3.5648
  Impulse FP iterations last/mean/max 30/29.66/30
Step   600/2000   30.0% | t 30.000 | ETA 8m 47s | step 0.37s | KE 38.4127 | drift -1.21% | fluid 35.1942 | solid 3.2186
  Impulse FP iterations last/mean/max 30/29.67/30
Step   700/2000   35.0% | t 35.000 | ETA 8m 7s | step 0.40s | KE 38.3630 | drift -1.33% | fluid 34.3917 | solid 3.9713
  Impulse FP iterations last/mean/max 30/29.67/30
Step   800/2000   40.0% | t 40.000 | ETA 7m 29s | step 0.37s | KE 38.6267 | drift -0.66% | fluid 35.1078 | solid 3.5190
  Impulse FP iterations last/mean/max 30/29.65/30
Step   900/2000   45.0% | t 45.000 | ETA 6m 52s | step 0.41s | KE 38.7210 | drift -0.41% | fluid 34.5745 | solid 4.1465
  Impulse FP iterations last/mean/max 30/29.66/30
Step  1000/2000   50.0% | t 50.000 | ETA 6m 15s | step 0.38s | KE 38.6569 | drift -0.58% | fluid 34.6636 | solid 3.9934
  Impulse FP iterations last/mean/max 30/29.66/30
Step  1100/2000   55.0% | t 55.000 | ETA 5m 35s | step 0.40s | KE 38.9900 | drift +0.28% | fluid 35.6886 | solid 3.3014
  Impulse FP iterations last/mean/max 30/29.66/30
Step  1200/2000   60.0% | t 60.000 | ETA 4m 57s | step 0.36s | KE 39.1013 | drift +0.56% | fluid 35.8201 | solid 3.2811
  Impulse FP iterations last/mean/max 30/29.66/30
Step  1300/2000   65.0% | t 65.000 | ETA 4m 20s | step 0.36s | KE 38.9550 | drift +0.19% | fluid 33.8958 | solid 5.0592
  Impulse FP iterations last/mean/max 30/29.65/30
Step  1400/2000   70.0% | t 70.000 | ETA 3m 42s | step 0.36s | KE 38.8220 | drift -0.15% | fluid 32.8056 | solid 6.0164
  Impulse FP iterations last/mean/max 30/29.65/30
Step  1500/2000   75.0% | t 75.000 | ETA 3m 5s | step 0.36s | KE 38.6458 | drift -0.61% | fluid 33.9132 | solid 4.7326
  Impulse FP iterations last/mean/max 30/29.65/30
Step  1600/2000   80.0% | t 80.000 | ETA 2m 28s | step 0.39s | KE 38.8403 | drift -0.11% | fluid 34.0085 | solid 4.8318
  Impulse FP iterations last/mean/max 30/29.66/30
Step  1700/2000   85.0% | t 85.000 | ETA 1m 51s | step 0.36s | KE 38.7144 | drift -0.43% | fluid 33.5419 | solid 5.1726
  Impulse FP iterations last/mean/max 30/29.66/30
Step  1800/2000   90.0% | t 90.000 | ETA 1m 14s | step 0.37s | KE 38.5631 | drift -0.82% | fluid 34.6381 | solid 3.9250
  Impulse FP iterations last/mean/max 30/29.67/30
Step  1900/2000   95.0% | t 95.000 | ETA 37s | step 0.41s | KE 38.3669 | drift -1.32% | fluid 34.7923 | solid 3.5746
  Impulse FP iterations last/mean/max 30/29.68/30
Solver finished successfully - good job!
Results saved successfully.

================== Run summary ==================
  Bodies:            2
  Triangles / nodes: 256 / 516
  Timesteps:         2000  (dt = 0.05)
  Simulated time:    0 -> 100
  First-step setup:  0.503 s
  Mean time/step:    0.3708 s  (excl. first step)
  Total wall time:   12m 21s
  Impulse FP iters last/mean/max: 30 / 29.677 / 30
  Approx impulse solves/step:     29.677
  Impulse start cache hits/direct: 1999 / 1
  Impulse global drift P/H:       3.092704e-6 / 7.732434e-3
  Impulse per-body max drift P/H: 3.707162e-6 / 5.042276e-3
  CPU cores:         256 available, 8 Rayon worker thread(s)
  Started:           2026-06-24 02:36:26
  Finished:          2026-06-24 02:48:48
  Output file:       /work/e643/e643/shared/multi_ellip/studies/two_body_paper_sweeps/runs/ellipsoid_1_0p8_0p6/ellipsoid_1_0p8_0p6_rho0p03_E1p5_sep5_run03_impulse_noproj/multiple_body_complete.dat
================================================
