
================ Simulation setup ================
  Run label:         /work/e643/e643/shared/multi_ellip/studies/two_body_paper_sweeps/runs/spheroid_1_0p7_0p7/spheroid_1_0p7_0p7_rho0p3_E30_sep11_run02_impulse_noproj/
  Started:           2026-06-22 19:46:37
  Input file:        /work/e643/e643/shared/multi_ellip/studies/two_body_paper_sweeps/runs/spheroid_1_0p7_0p7/spheroid_1_0p7_0p7_rho0p3_E30_sep11_run02_impulse_noproj/input.txt
  Output file:       /work/e643/e643/shared/multi_ellip/studies/two_body_paper_sweeps/runs/spheroid_1_0p7_0p7/spheroid_1_0p7_0p7_rho0p3_E30_sep11_run02_impulse_noproj/multiple_body_complete.dat
  Bodies:            2
  Fluid density:     1
  Mesh:              ndiv 2 -> 256 triangles / 516 nodes
  Simulated time:    0 -> 100  (dt = 0.05, ~2000 steps)
  Output cadence:    every 1 step(s)
  Output rows:       ~2001
  Progress cadence:  every 100 step(s)
  CPU cores:         256 available, 8 Rayon worker thread(s)
  Strong coupling:   disabled
  Impulse scheme:    enabled
  Hamiltonian step:  disabled
  Hamiltonian midpt: disabled
  Variational step:  disabled
  Energy projection: disabled
  Projection particular metric: Euclidean
  Fluid KE gradient: disabled  (eps = 0.001, scale = 1, linear = 1, angular = 1)
  Fluid KE discrete gradient: disabled
  Impulse pair metric correction: disabled  (mode = pair discrete-gradient, cutoff = all pairs, inner/outer = 0/0, eps = 0.001, linear scale = 1, angular scale = 0)
  Impulse metric correction: disabled  (internal load constraint = disabled)
  Impulse variational defect probe: disabled
  Impulse quadratic pressure: disabled  (scale = 1)
  Added-mass stab:   disabled
  Exact BEM geometry: disabled
  Exact singular BEM: disabled
  Legacy singular SLP diagnostic: disabled
  Phi-dot blend:     0 (off)

  Solver guidance:
    - Strong coupling: use for stiff close-coupled runs; slower but more implicit.
    - Impulse scheme: use when impulse/momentum conservation or KE drift is the focus. Recommended.
    - Added-mass stab: use for higher mesh counts (ndiv > 3) to preserve stability - deprecated.
================================================
Solver starting - good luck!

Initial state:
  Body  1
    density:          0.300000
    shape axes ratio: (1.000000, 0.700000, 0.700000)
    initial KE ratio: 30.000000
    position:         (-5.500000, 0.000000, 0.000000)
    velocity:         (0.363575, -0.402066, -0.453393)
    angular velocity: (4.903581, -2.241732, 3.226136)
    orientation:      (w=0.577350, i=0.577350, j=0.577350, k=0.000000)
  Body  2
    density:          0.300000
    shape axes ratio: (1.000000, 0.700000, 0.700000)
    initial KE ratio: 30.000000
    position:         (5.500000, 0.000000, 0.000000)
    velocity:         (0.394137, -0.435864, -0.491506)
    angular velocity: (2.837486, -5.449328, 1.316023)
    orientation:      (w=0.577350, i=-0.577350, j=0.000000, k=0.577350)

Preparing first step: implicit scheme, no bootstrap passes required.
First step may take longer than later steps.

First step completed in 0.362 s.

Step   100/2000    5.0% | t 5.000 | ETA 5m 16s | step 0.17s | KE 29.4414 | drift +0.29% | fluid 6.6437 | solid 22.7977
  Impulse FP iterations last/mean/max 12/11.55/12
Step   200/2000   10.0% | t 10.000 | ETA 4m 59s | step 0.15s | KE 29.4759 | drift +0.40% | fluid 6.6372 | solid 22.8387
  Impulse FP iterations last/mean/max 11/11.60/12
Step   300/2000   15.0% | t 15.000 | ETA 4m 42s | step 0.14s | KE 29.5094 | drift +0.52% | fluid 6.6502 | solid 22.8592
  Impulse FP iterations last/mean/max 11/11.60/12
Step   400/2000   20.0% | t 20.000 | ETA 4m 24s | step 0.17s | KE 29.5113 | drift +0.53% | fluid 6.6513 | solid 22.8600
  Impulse FP iterations last/mean/max 12/11.55/12
Step   500/2000   25.0% | t 25.000 | ETA 4m 8s | step 0.16s | KE 29.4890 | drift +0.45% | fluid 6.6397 | solid 22.8493
  Impulse FP iterations last/mean/max 12/11.55/12
Step   600/2000   30.0% | t 30.000 | ETA 3m 47s | step 0.14s | KE 29.4505 | drift +0.32% | fluid 6.6431 | solid 22.8074
  Impulse FP iterations last/mean/max 11/11.54/12
Step   700/2000   35.0% | t 35.000 | ETA 3m 27s | step 0.14s | KE 29.3694 | drift +0.04% | fluid 6.6143 | solid 22.7551
  Impulse FP iterations last/mean/max 12/11.53/12
Step   800/2000   40.0% | t 40.000 | ETA 3m 10s | step 0.15s | KE 29.3013 | drift -0.19% | fluid 6.6086 | solid 22.6927
  Impulse FP iterations last/mean/max 11/11.53/12
Step   900/2000   45.0% | t 45.000 | ETA 2m 53s | step 0.14s | KE 29.2092 | drift -0.50% | fluid 6.5918 | solid 22.6174
  Impulse FP iterations last/mean/max 11/11.52/12
Step  1000/2000   50.0% | t 50.000 | ETA 2m 38s | step 0.16s | KE 29.1376 | drift -0.75% | fluid 6.5716 | solid 22.5660
  Impulse FP iterations last/mean/max 11/11.52/12
Step  1100/2000   55.0% | t 55.000 | ETA 2m 23s | step 0.16s | KE 29.0536 | drift -1.03% | fluid 6.5543 | solid 22.4993
  Impulse FP iterations last/mean/max 11/11.52/12
Step  1200/2000   60.0% | t 60.000 | ETA 2m 7s | step 0.16s | KE 29.0009 | drift -1.21% | fluid 6.5525 | solid 22.4484
  Impulse FP iterations last/mean/max 12/11.53/12
Step  1300/2000   65.0% | t 65.000 | ETA 1m 52s | step 0.15s | KE 28.9515 | drift -1.38% | fluid 6.5338 | solid 22.4177
  Impulse FP iterations last/mean/max 11/11.53/12
Step  1400/2000   70.0% | t 70.000 | ETA 1m 36s | step 0.15s | KE 28.9173 | drift -1.50% | fluid 6.5300 | solid 22.3873
  Impulse FP iterations last/mean/max 11/11.53/12
Step  1500/2000   75.0% | t 75.000 | ETA 1m 20s | step 0.16s | KE 28.8845 | drift -1.61% | fluid 6.5220 | solid 22.3625
  Impulse FP iterations last/mean/max 11/11.53/12
Step  1600/2000   80.0% | t 80.000 | ETA 1m 4s | step 0.14s | KE 28.8824 | drift -1.62% | fluid 6.5234 | solid 22.3590
  Impulse FP iterations last/mean/max 11/11.53/12
Step  1700/2000   85.0% | t 85.000 | ETA 47s | step 0.15s | KE 28.8543 | drift -1.71% | fluid 6.5135 | solid 22.3409
  Impulse FP iterations last/mean/max 12/11.53/12
Step  1800/2000   90.0% | t 90.000 | ETA 31s | step 0.13s | KE 28.8577 | drift -1.70% | fluid 6.5160 | solid 22.3417
  Impulse FP iterations last/mean/max 11/11.52/12
Step  1900/2000   95.0% | t 95.000 | ETA 15s | step 0.12s | KE 28.8476 | drift -1.74% | fluid 6.5082 | solid 22.3394
  Impulse FP iterations last/mean/max 12/11.51/12
Solver finished successfully - good job!
Results saved successfully.

================== Run summary ==================
  Bodies:            2
  Triangles / nodes: 256 / 516
  Timesteps:         2000  (dt = 0.05)
  Simulated time:    0 -> 100
  First-step setup:  0.362 s
  Mean time/step:    0.1543 s  (excl. first step)
  Total wall time:   5m 8s
  Impulse FP iters last/mean/max: 11 / 11.510 / 12
  Approx impulse solves/step:     11.511
  Impulse start cache hits/direct: 1999 / 1
  Impulse global drift P/H:       5.204130e-8 / 1.487655e-2
  Impulse per-body max drift P/H: 6.987967e-8 / 4.904521e-3
  CPU cores:         256 available, 8 Rayon worker thread(s)
  Started:           2026-06-22 19:46:37
  Finished:          2026-06-22 19:51:48
  Output file:       /work/e643/e643/shared/multi_ellip/studies/two_body_paper_sweeps/runs/spheroid_1_0p7_0p7/spheroid_1_0p7_0p7_rho0p3_E30_sep11_run02_impulse_noproj/multiple_body_complete.dat
================================================
