
================ Simulation setup ================
  Run label:         /work/e643/e643/shared/multi_ellip/studies/departing_sphericity_sweep/runs/triaxial/heterogeneous_sphere/triaxial_heterogeneous_sphere_eps0p003_rho1_E0p5_sep8_run04_impulse_noproj/
  Started:           2026-06-24 02:43:21
  Input file:        /work/e643/e643/shared/multi_ellip/studies/departing_sphericity_sweep/runs/triaxial/heterogeneous_sphere/triaxial_heterogeneous_sphere_eps0p003_rho1_E0p5_sep8_run04_impulse_noproj/input.txt
  Output file:       /work/e643/e643/shared/multi_ellip/studies/departing_sphericity_sweep/runs/triaxial/heterogeneous_sphere/triaxial_heterogeneous_sphere_eps0p003_rho1_E0p5_sep8_run04_impulse_noproj/multiple_body_complete.dat
  Bodies:            2
  Fluid density:     1
  Mesh:              ndiv 2 -> 256 triangles / 516 nodes
  Simulated time:    0 -> 100  (dt = 0.05, ~2000 steps)
  Output cadence:    every 1 step(s)
  Output rows:       ~2001
  Progress cadence:  every 100 step(s)
  CPU cores:         256 available, 8 Rayon worker thread(s)
  Strong coupling:   disabled
  Impulse scheme:    enabled
  Hamiltonian step:  disabled
  Hamiltonian midpt: disabled
  Variational step:  disabled
  Energy projection: disabled
  Projection particular metric: Euclidean
  Fluid KE gradient: disabled  (eps = 0.001, scale = 1, linear = 1, angular = 1)
  Fluid KE discrete gradient: disabled
  Impulse pair metric correction: disabled  (mode = pair discrete-gradient, cutoff = all pairs, inner/outer = 0/0, eps = 0.001, linear scale = 1, angular scale = 0)
  Impulse metric correction: disabled  (internal load constraint = disabled)
  Impulse variational defect probe: disabled
  Impulse quadratic pressure: disabled  (scale = 1)
  Added-mass stab:   disabled
  Exact BEM geometry: disabled
  Exact singular BEM: disabled
  Legacy singular SLP diagnostic: disabled
  Phi-dot blend:     0 (off)

  Solver guidance:
    - Strong coupling: use for stiff close-coupled runs; slower but more implicit.
    - Impulse scheme: use when impulse/momentum conservation or KE drift is the focus. Recommended.
    - Added-mass stab: use for higher mesh counts (ndiv > 3) to preserve stability - deprecated.
================================================
Solver starting - good luck!

Initial state:
  Body  1
    density:          1.000000
    shape axes ratio: (1.000000, 0.997009, 0.994027)
    initial KE ratio: 0.500000
    position:         (-4.000000, 0.000000, 0.000000)
    velocity:         (-0.256024, -3.157556, 4.638466)
    angular velocity: (-3.661818, -5.105703, 0.036137)
    orientation:      (w=0.542149, i=-0.758351, j=0.015936, k=-0.361559)
  Body  2
    density:          1.000000
    shape axes ratio: (1.000000, 1.000000, 1.000000)
    initial KE ratio: 0.500000
    position:         (4.000000, 0.000000, 0.000000)
    velocity:         (-0.256153, -3.159140, 4.640792)
    angular velocity: (-0.620031, 5.386952, 3.174070)
    orientation:      (w=0.420111, i=-0.419729, j=0.019500, k=-0.804334)

Preparing first step: implicit scheme, no bootstrap passes required.
First step may take longer than later steps.

First step completed in 0.270 s.

Step   100/2000    5.0% | t 5.000 | ETA 3m 21s | step 0.11s | KE 270.6990 | drift -0.12% | fluid 72.5585 | solid 198.1406
  Impulse FP iterations last/mean/max 8/7.58/8
Step   200/2000   10.0% | t 10.000 | ETA 3m 11s | step 0.10s | KE 270.3224 | drift -0.26% | fluid 72.5456 | solid 197.7768
  Impulse FP iterations last/mean/max 7/7.58/8
Step   300/2000   15.0% | t 15.000 | ETA 3m 0s | step 0.11s | KE 269.8989 | drift -0.42% | fluid 72.5539 | solid 197.3450
  Impulse FP iterations last/mean/max 8/7.59/8
Step   400/2000   20.0% | t 20.000 | ETA 2m 50s | step 0.10s | KE 269.4261 | drift -0.59% | fluid 72.5748 | solid 196.8513
  Impulse FP iterations last/mean/max 7/7.59/8
Step   500/2000   25.0% | t 25.000 | ETA 2m 39s | step 0.11s | KE 268.9101 | drift -0.79% | fluid 72.5470 | solid 196.3631
  Impulse FP iterations last/mean/max 8/7.59/8
Step   600/2000   30.0% | t 30.000 | ETA 2m 28s | step 0.11s | KE 268.3408 | drift -1.00% | fluid 72.5436 | solid 195.7971
  Impulse FP iterations last/mean/max 8/7.60/8
Step   700/2000   35.0% | t 35.000 | ETA 2m 18s | step 0.09s | KE 267.7145 | drift -1.23% | fluid 72.5886 | solid 195.1258
  Impulse FP iterations last/mean/max 7/7.60/8
Step   800/2000   40.0% | t 40.000 | ETA 2m 7s | step 0.11s | KE 267.0492 | drift -1.47% | fluid 72.5474 | solid 194.5019
  Impulse FP iterations last/mean/max 8/7.60/8
Step   900/2000   45.0% | t 45.000 | ETA 1m 57s | step 0.11s | KE 266.3318 | drift -1.74% | fluid 72.5500 | solid 193.7817
  Impulse FP iterations last/mean/max 8/7.60/8
Step  1000/2000   50.0% | t 50.000 | ETA 1m 46s | step 0.10s | KE 265.5708 | drift -2.02% | fluid 72.5702 | solid 193.0006
  Impulse FP iterations last/mean/max 7/7.60/8
Step  1100/2000   55.0% | t 55.000 | ETA 1m 35s | step 0.11s | KE 264.7804 | drift -2.31% | fluid 72.5388 | solid 192.2416
  Impulse FP iterations last/mean/max 8/7.60/8
Step  1200/2000   60.0% | t 60.000 | ETA 1m 25s | step 0.12s | KE 263.9535 | drift -2.61% | fluid 72.5597 | solid 191.3938
  Impulse FP iterations last/mean/max 8/7.60/8
Step  1300/2000   65.0% | t 65.000 | ETA 1m 14s | step 0.11s | KE 263.1026 | drift -2.93% | fluid 72.5867 | solid 190.5158
  Impulse FP iterations last/mean/max 7/7.61/8
Step  1400/2000   70.0% | t 70.000 | ETA 1m 3s | step 0.11s | KE 262.2429 | drift -3.24% | fluid 72.5697 | solid 189.6732
  Impulse FP iterations last/mean/max 8/7.61/8
Step  1500/2000   75.0% | t 75.000 | ETA 53s | step 0.11s | KE 261.3799 | drift -3.56% | fluid 72.5436 | solid 188.8363
  Impulse FP iterations last/mean/max 8/7.61/8
Step  1600/2000   80.0% | t 80.000 | ETA 42s | step 0.11s | KE 260.5211 | drift -3.88% | fluid 72.5311 | solid 187.9901
  Impulse FP iterations last/mean/max 8/7.61/8
Step  1700/2000   85.0% | t 85.000 | ETA 31s | step 0.12s | KE 259.6777 | drift -4.19% | fluid 72.5277 | solid 187.1500
  Impulse FP iterations last/mean/max 8/7.61/8
Step  1800/2000   90.0% | t 90.000 | ETA 21s | step 0.12s | KE 258.8607 | drift -4.49% | fluid 72.5277 | solid 186.3329
  Impulse FP iterations last/mean/max 8/7.61/8
Step  1900/2000   95.0% | t 95.000 | ETA 10s | step 0.09s | KE 258.0797 | drift -4.78% | fluid 72.5340 | solid 185.5457
  Impulse FP iterations last/mean/max 8/7.61/8
Solver finished successfully - good job!
Results saved successfully.

================== Run summary ==================
  Bodies:            2
  Triangles / nodes: 256 / 516
  Timesteps:         2000  (dt = 0.05)
  Simulated time:    0 -> 100
  First-step setup:  0.270 s
  Mean time/step:    0.1046 s  (excl. first step)
  Total wall time:   3m 29s
  Impulse FP iters last/mean/max: 8 / 7.610 / 8
  Approx impulse solves/step:     7.611
  Impulse start cache hits/direct: 1999 / 1
  Impulse global drift P/H:       2.217128e-8 / 2.467132e-2
  Impulse per-body max drift P/H: 3.307798e-8 / 1.610191e-3
  CPU cores:         256 available, 8 Rayon worker thread(s)
  Started:           2026-06-24 02:43:21
  Finished:          2026-06-24 02:46:51
  Output file:       /work/e643/e643/shared/multi_ellip/studies/departing_sphericity_sweep/runs/triaxial/heterogeneous_sphere/triaxial_heterogeneous_sphere_eps0p003_rho1_E0p5_sep8_run04_impulse_noproj/multiple_body_complete.dat
================================================
