
================ Simulation setup ================
  Run label:         /work/e643/e643/shared/multi_ellip/studies/multibody_convergence_sweep/runs/periodic_both_ellipsoid_1_0p8_0p6_rho4_E1_sep8_nd3_dt0p05/
  Started:           2026-06-22 19:37:46
  Input file:        /work/e643/e643/shared/multi_ellip/studies/multibody_convergence_sweep/runs/periodic_both_ellipsoid_1_0p8_0p6_rho4_E1_sep8_nd3_dt0p05/input.txt
  Output file:       /work/e643/e643/shared/multi_ellip/studies/multibody_convergence_sweep/runs/periodic_both_ellipsoid_1_0p8_0p6_rho4_E1_sep8_nd3_dt0p05/multiple_body_complete.dat
  Bodies:            2
  Fluid density:     1
  Mesh:              ndiv 3 -> 1024 triangles / 2052 nodes
  Simulated time:    0 -> 10  (dt = 0.05, ~200 steps)
  Output cadence:    every 1 step(s)
  Output rows:       ~201
  Progress cadence:  every 20 step(s)
  CPU cores:         256 available, 16 Rayon worker thread(s)
  Strong coupling:   disabled
  Impulse scheme:    enabled
  Hamiltonian step:  disabled
  Hamiltonian midpt: disabled
  Variational step:  disabled
  Energy projection: disabled
  Projection particular metric: Euclidean
  Fluid KE gradient: disabled  (eps = 0.001, scale = 1, linear = 1, angular = 1)
  Fluid KE discrete gradient: disabled
  Impulse pair metric correction: disabled  (mode = pair discrete-gradient, cutoff = all pairs, inner/outer = 0/0, eps = 0.001, linear scale = 1, angular scale = 0)
  Impulse metric correction: disabled  (internal load constraint = disabled)
  Impulse variational defect probe: disabled
  Impulse quadratic pressure: disabled  (scale = 1)
  Added-mass stab:   disabled
  Exact BEM geometry: disabled
  Exact singular BEM: disabled
  Legacy singular SLP diagnostic: disabled
  Phi-dot blend:     0 (off)

  Solver guidance:
    - Strong coupling: use for stiff close-coupled runs; slower but more implicit.
    - Impulse scheme: use when impulse/momentum conservation or KE drift is the focus. Recommended.
    - Added-mass stab: use for higher mesh counts (ndiv > 3) to preserve stability - deprecated.
================================================
Solver starting - good luck!

Initial state:
  Body  1
    density:          4.000000
    shape axes ratio: (1.000000, 0.800000, 0.600000)
    initial KE ratio: 1.000000
    position:         (-4.000000, 0.000000, 0.000000)
    velocity:         (1.839967, 3.117161, -0.416762)
    angular velocity: (6.090571, -1.052377, 1.129541)
    orientation:      (w=0.447214, i=0.894427, j=0.000000, k=0.000000)
  Body  2
    density:          4.000000
    shape axes ratio: (1.000000, 0.800000, 0.600000)
    initial KE ratio: 1.000000
    position:         (4.000000, 0.000000, 0.000000)
    velocity:         (2.096375, 3.551550, -0.474840)
    angular velocity: (-3.369331, 4.076713, -3.392114)
    orientation:      (w=0.707107, i=0.000000, j=0.707107, k=0.000000)

Preparing first step: implicit scheme, no bootstrap passes required.
First step may take longer than later steps.

First step completed in 2.686 s.

Step    20/200    10.0% | t 1.000 | ETA 3m 1s | step 1.05s | KE 552.7985 | drift +0.06% | fluid 37.3790 | solid 515.4195
  Impulse FP iterations last/mean/max 8/8.60/9
Step    40/200    20.0% | t 2.000 | ETA 2m 46s | step 1.05s | KE 553.1642 | drift +0.13% | fluid 38.9623 | solid 514.2019
  Impulse FP iterations last/mean/max 9/8.70/9
Step    60/200    30.0% | t 3.000 | ETA 2m 24s | step 0.86s | KE 553.5050 | drift +0.19% | fluid 35.1806 | solid 518.3243
  Impulse FP iterations last/mean/max 8/8.77/9
Step    80/200    40.0% | t 4.000 | ETA 2m 1s | step 0.99s | KE 553.6273 | drift +0.21% | fluid 33.4568 | solid 520.1705
  Impulse FP iterations last/mean/max 9/8.78/9
Step   100/200    50.0% | t 5.000 | ETA 1m 40s | step 1.01s | KE 553.7446 | drift +0.23% | fluid 42.8272 | solid 510.9174
  Impulse FP iterations last/mean/max 9/8.75/9
Step   120/200    60.0% | t 6.000 | ETA 1m 20s | step 0.90s | KE 553.9381 | drift +0.27% | fluid 47.5385 | solid 506.3996
  Impulse FP iterations last/mean/max 8/8.77/9
Step   140/200    70.0% | t 7.000 | ETA 59s | step 0.95s | KE 554.2895 | drift +0.33% | fluid 44.0228 | solid 510.2667
  Impulse FP iterations last/mean/max 9/8.79/9
Step   160/200    80.0% | t 8.000 | ETA 39s | step 0.89s | KE 554.8508 | drift +0.43% | fluid 36.2929 | solid 518.5579
  Impulse FP iterations last/mean/max 8/8.77/9
Step   180/200    90.0% | t 9.000 | ETA 19s | step 0.92s | KE 555.1697 | drift +0.49% | fluid 38.5190 | solid 516.6507
  Impulse FP iterations last/mean/max 9/8.78/9
Solver finished successfully - good job!
Results saved successfully.

================== Run summary ==================
  Bodies:            2
  Triangles / nodes: 1024 / 2052
  Timesteps:         200  (dt = 0.05)
  Simulated time:    0 -> 10
  First-step setup:  2.686 s
  Mean time/step:    0.9765 s  (excl. first step)
  Total wall time:   3m 17s
  Impulse FP iters last/mean/max: 9 / 8.790 / 9
  Approx impulse solves/step:     8.795
  Impulse start cache hits/direct: 199 / 1
  Impulse global drift P/H:       1.146918e-9 / 1.360898e-2
  Impulse per-body max drift P/H: 1.773227e-9 / 2.006956e-3
  CPU cores:         256 available, 16 Rayon worker thread(s)
  Started:           2026-06-22 19:37:46
  Finished:          2026-06-22 19:41:03
  Output file:       /work/e643/e643/shared/multi_ellip/studies/multibody_convergence_sweep/runs/periodic_both_ellipsoid_1_0p8_0p6_rho4_E1_sep8_nd3_dt0p05/multiple_body_complete.dat
================================================
