
================ Simulation setup ================
  Run label:         /work/e643/e643/shared/multi_ellip/studies/departing_sphericity_sweep/runs/spheroid_oblate/homogeneous/spheroid_oblate_homogeneous_eps0p01_rho1_E0p5_sep8_run02_impulse_noproj/
  Started:           2026-06-24 02:26:25
  Input file:        /work/e643/e643/shared/multi_ellip/studies/departing_sphericity_sweep/runs/spheroid_oblate/homogeneous/spheroid_oblate_homogeneous_eps0p01_rho1_E0p5_sep8_run02_impulse_noproj/input.txt
  Output file:       /work/e643/e643/shared/multi_ellip/studies/departing_sphericity_sweep/runs/spheroid_oblate/homogeneous/spheroid_oblate_homogeneous_eps0p01_rho1_E0p5_sep8_run02_impulse_noproj/multiple_body_complete.dat
  Bodies:            2
  Fluid density:     1
  Mesh:              ndiv 2 -> 256 triangles / 516 nodes
  Simulated time:    0 -> 100  (dt = 0.05, ~2000 steps)
  Output cadence:    every 1 step(s)
  Output rows:       ~2001
  Progress cadence:  every 100 step(s)
  CPU cores:         256 available, 8 Rayon worker thread(s)
  Strong coupling:   disabled
  Impulse scheme:    enabled
  Hamiltonian step:  disabled
  Hamiltonian midpt: disabled
  Variational step:  disabled
  Energy projection: disabled
  Projection particular metric: Euclidean
  Fluid KE gradient: disabled  (eps = 0.001, scale = 1, linear = 1, angular = 1)
  Fluid KE discrete gradient: disabled
  Impulse pair metric correction: disabled  (mode = pair discrete-gradient, cutoff = all pairs, inner/outer = 0/0, eps = 0.001, linear scale = 1, angular scale = 0)
  Impulse metric correction: disabled  (internal load constraint = disabled)
  Impulse variational defect probe: disabled
  Impulse quadratic pressure: disabled  (scale = 1)
  Added-mass stab:   disabled
  Exact BEM geometry: disabled
  Exact singular BEM: disabled
  Legacy singular SLP diagnostic: disabled
  Phi-dot blend:     0 (off)

  Solver guidance:
    - Strong coupling: use for stiff close-coupled runs; slower but more implicit.
    - Impulse scheme: use when impulse/momentum conservation or KE drift is the focus. Recommended.
    - Added-mass stab: use for higher mesh counts (ndiv > 3) to preserve stability - deprecated.
================================================
Solver starting - good luck!

Initial state:
  Body  1
    density:          1.000000
    shape axes ratio: (1.000000, 1.000000, 0.970590)
    initial KE ratio: 0.500000
    position:         (-4.000000, 0.000000, 0.000000)
    velocity:         (-4.874717, 1.018300, 2.665900)
    angular velocity: (3.349086, -1.386909, -5.132107)
    orientation:      (w=-0.379739, i=-0.074611, j=-0.439833, k=-0.810419)
  Body  2
    density:          1.000000
    shape axes ratio: (1.000000, 1.000000, 0.970590)
    initial KE ratio: 0.500000
    position:         (4.000000, 0.000000, 0.000000)
    velocity:         (-4.891264, 1.021756, 2.674949)
    angular velocity: (-1.010675, -1.715510, 5.959361)
    orientation:      (w=0.643014, i=0.584215, j=0.099453, k=-0.485113)

Preparing first step: implicit scheme, no bootstrap passes required.
First step may take longer than later steps.

First step completed in 0.273 s.

Step   100/2000    5.0% | t 5.000 | ETA 3m 19s | step 0.10s | KE 277.4787 | drift +1.93% | fluid 72.1068 | solid 205.3719
  Impulse FP iterations last/mean/max 8/7.80/8
Step   200/2000   10.0% | t 10.000 | ETA 3m 8s | step 0.10s | KE 284.2365 | drift +4.42% | fluid 72.0197 | solid 212.2168
  Impulse FP iterations last/mean/max 7/7.76/8
Step   300/2000   15.0% | t 15.000 | ETA 2m 58s | step 0.10s | KE 292.6881 | drift +7.52% | fluid 72.1088 | solid 220.5793
  Impulse FP iterations last/mean/max 8/7.77/8
Step   400/2000   20.0% | t 20.000 | ETA 2m 47s | step 0.11s | KE 303.2774 | drift +11.41% | fluid 72.3461 | solid 230.9313
  Impulse FP iterations last/mean/max 8/7.77/8
Step   500/2000   25.0% | t 25.000 | ETA 2m 37s | step 0.11s | KE 316.4261 | drift +16.24% | fluid 72.7081 | solid 243.7180
  Impulse FP iterations last/mean/max 8/7.77/8
Step   600/2000   30.0% | t 30.000 | ETA 2m 26s | step 0.10s | KE 332.5736 | drift +22.17% | fluid 72.1531 | solid 260.4204
  Impulse FP iterations last/mean/max 8/7.75/8
Step   700/2000   35.0% | t 35.000 | ETA 2m 16s | step 0.11s | KE 351.9722 | drift +29.30% | fluid 72.1598 | solid 279.8124
  Impulse FP iterations last/mean/max 8/7.75/8
Step   800/2000   40.0% | t 40.000 | ETA 2m 5s | step 0.10s | KE 375.2754 | drift +37.86% | fluid 72.0247 | solid 303.2507
  Impulse FP iterations last/mean/max 7/7.72/8
Step   900/2000   45.0% | t 45.000 | ETA 1m 55s | step 0.10s | KE 402.4521 | drift +47.84% | fluid 72.5275 | solid 329.9247
  Impulse FP iterations last/mean/max 8/7.73/8
Step  1000/2000   50.0% | t 50.000 | ETA 1m 44s | step 0.11s | KE 434.7443 | drift +59.71% | fluid 72.4187 | solid 362.3256
  Impulse FP iterations last/mean/max 8/7.74/8
Step  1100/2000   55.0% | t 55.000 | ETA 1m 34s | step 0.10s | KE 472.5348 | drift +73.59% | fluid 72.1320 | solid 400.4028
  Impulse FP iterations last/mean/max 7/7.74/8
Step  1200/2000   60.0% | t 60.000 | ETA 1m 24s | step 0.11s | KE 516.7043 | drift +89.82% | fluid 72.3062 | solid 444.3980
  Impulse FP iterations last/mean/max 8/7.75/8
Step  1300/2000   65.0% | t 65.000 | ETA 1m 13s | step 0.10s | KE 568.7474 | drift +108.93% | fluid 72.8336 | solid 495.9137
  Impulse FP iterations last/mean/max 8/7.77/8
Step  1400/2000   70.0% | t 70.000 | ETA 1m 3s | step 0.11s | KE 630.9257 | drift +131.78% | fluid 72.6441 | solid 558.2816
  Impulse FP iterations last/mean/max 8/7.78/8
Step  1500/2000   75.0% | t 75.000 | ETA 52s | step 0.11s | KE 705.1261 | drift +159.03% | fluid 72.9500 | solid 632.1761
  Impulse FP iterations last/mean/max 8/7.79/8
Step  1600/2000   80.0% | t 80.000 | ETA 42s | step 0.11s | KE 794.5126 | drift +191.87% | fluid 72.6739 | solid 721.8387
  Impulse FP iterations last/mean/max 8/7.80/8
Step  1700/2000   85.0% | t 85.000 | ETA 31s | step 0.11s | KE 902.4901 | drift +231.54% | fluid 72.5556 | solid 829.9345
  Impulse FP iterations last/mean/max 8/7.81/8
Step  1800/2000   90.0% | t 90.000 | ETA 21s | step 0.11s | KE 1032.2453 | drift +279.20% | fluid 72.5307 | solid 959.7146
  Impulse FP iterations last/mean/max 8/7.82/8
Step  1900/2000   95.0% | t 95.000 | ETA 10s | step 0.10s | KE 1186.0623 | drift +335.71% | fluid 72.7072 | solid 1113.3552
  Impulse FP iterations last/mean/max 8/7.83/8
Solver finished successfully - good job!
Results saved successfully.

================== Run summary ==================
  Bodies:            2
  Triangles / nodes: 256 / 516
  Timesteps:         2000  (dt = 0.05)
  Simulated time:    0 -> 100
  First-step setup:  0.273 s
  Mean time/step:    0.1043 s  (excl. first step)
  Total wall time:   3m 28s
  Impulse FP iters last/mean/max: 8 / 7.840 / 8
  Approx impulse solves/step:     7.840
  Impulse start cache hits/direct: 1999 / 1
  Impulse global drift P/H:       2.935087e-8 / 6.010327e-1
  Impulse per-body max drift P/H: 5.776798e-8 / 5.071809e-2
  CPU cores:         256 available, 8 Rayon worker thread(s)
  Started:           2026-06-24 02:26:25
  Finished:          2026-06-24 02:29:55
  Output file:       /work/e643/e643/shared/multi_ellip/studies/departing_sphericity_sweep/runs/spheroid_oblate/homogeneous/spheroid_oblate_homogeneous_eps0p01_rho1_E0p5_sep8_run02_impulse_noproj/multiple_body_complete.dat
================================================
