
================ Simulation setup ================
  Run label:         /work/e643/e643/shared/multi_ellip/studies/departing_sphericity_sweep/runs/spheroid_oblate/homogeneous/spheroid_oblate_homogeneous_eps0p0001_rho1_E0p5_sep8_run04_impulse_noproj/
  Started:           2026-06-24 02:23:12
  Input file:        /work/e643/e643/shared/multi_ellip/studies/departing_sphericity_sweep/runs/spheroid_oblate/homogeneous/spheroid_oblate_homogeneous_eps0p0001_rho1_E0p5_sep8_run04_impulse_noproj/input.txt
  Output file:       /work/e643/e643/shared/multi_ellip/studies/departing_sphericity_sweep/runs/spheroid_oblate/homogeneous/spheroid_oblate_homogeneous_eps0p0001_rho1_E0p5_sep8_run04_impulse_noproj/multiple_body_complete.dat
  Bodies:            2
  Fluid density:     1
  Mesh:              ndiv 2 -> 256 triangles / 516 nodes
  Simulated time:    0 -> 100  (dt = 0.05, ~2000 steps)
  Output cadence:    every 1 step(s)
  Output rows:       ~2001
  Progress cadence:  every 100 step(s)
  CPU cores:         256 available, 8 Rayon worker thread(s)
  Strong coupling:   disabled
  Impulse scheme:    enabled
  Hamiltonian step:  disabled
  Hamiltonian midpt: disabled
  Variational step:  disabled
  Energy projection: disabled
  Projection particular metric: Euclidean
  Fluid KE gradient: disabled  (eps = 0.001, scale = 1, linear = 1, angular = 1)
  Fluid KE discrete gradient: disabled
  Impulse pair metric correction: disabled  (mode = pair discrete-gradient, cutoff = all pairs, inner/outer = 0/0, eps = 0.001, linear scale = 1, angular scale = 0)
  Impulse metric correction: disabled  (internal load constraint = disabled)
  Impulse variational defect probe: disabled
  Impulse quadratic pressure: disabled  (scale = 1)
  Added-mass stab:   disabled
  Exact BEM geometry: disabled
  Exact singular BEM: disabled
  Legacy singular SLP diagnostic: disabled
  Phi-dot blend:     0 (off)

  Solver guidance:
    - Strong coupling: use for stiff close-coupled runs; slower but more implicit.
    - Impulse scheme: use when impulse/momentum conservation or KE drift is the focus. Recommended.
    - Added-mass stab: use for higher mesh counts (ndiv > 3) to preserve stability - deprecated.
================================================
Solver starting - good luck!

Initial state:
  Body  1
    density:          1.000000
    shape axes ratio: (1.000000, 1.000000, 0.999700)
    initial KE ratio: 0.500000
    position:         (-4.000000, 0.000000, 0.000000)
    velocity:         (-0.769751, -1.366562, -5.396967)
    angular velocity: (-1.682535, -2.153958, 5.657558)
    orientation:      (w=0.379423, i=0.672451, j=-0.340575, k=0.536522)
  Body  2
    density:          1.000000
    shape axes ratio: (1.000000, 1.000000, 0.999700)
    initial KE ratio: 0.500000
    position:         (4.000000, 0.000000, 0.000000)
    velocity:         (-0.769672, -1.366421, -5.396410)
    angular velocity: (5.302770, 2.551533, -2.201982)
    orientation:      (w=-0.562601, i=-0.223960, j=-0.525207, k=-0.597896)

Preparing first step: implicit scheme, no bootstrap passes required.
First step may take longer than later steps.

First step completed in 4.072 s.

Step   100/2000    5.0% | t 5.000 | ETA 2m 32s | step 0.08s | KE 270.9503 | drift -0.03% | fluid 72.5978 | solid 198.3525
  Impulse FP iterations last/mean/max 6/6.00/6
Step   200/2000   10.0% | t 10.000 | ETA 2m 23s | step 0.08s | KE 271.0924 | drift +0.02% | fluid 72.5973 | solid 198.4950
  Impulse FP iterations last/mean/max 6/6.00/6
Step   300/2000   15.0% | t 15.000 | ETA 2m 12s | step 0.07s | KE 271.4698 | drift +0.16% | fluid 72.5991 | solid 198.8707
  Impulse FP iterations last/mean/max 6/6.00/6
Step   400/2000   20.0% | t 20.000 | ETA 2m 0s | step 0.07s | KE 272.0856 | drift +0.39% | fluid 72.5975 | solid 199.4881
  Impulse FP iterations last/mean/max 6/6.00/6
Step   500/2000   25.0% | t 25.000 | ETA 1m 51s | step 0.08s | KE 272.9414 | drift +0.70% | fluid 72.5990 | solid 200.3423
  Impulse FP iterations last/mean/max 6/6.00/6
Step   600/2000   30.0% | t 30.000 | ETA 1m 45s | step 0.08s | KE 274.0402 | drift +1.11% | fluid 72.5970 | solid 201.4433
  Impulse FP iterations last/mean/max 6/6.00/6
Step   700/2000   35.0% | t 35.000 | ETA 1m 38s | step 0.08s | KE 275.3839 | drift +1.60% | fluid 72.5978 | solid 202.7862
  Impulse FP iterations last/mean/max 6/6.00/6
Step   800/2000   40.0% | t 40.000 | ETA 1m 31s | step 0.08s | KE 276.9753 | drift +2.19% | fluid 72.5979 | solid 204.3774
  Impulse FP iterations last/mean/max 6/6.00/6
Step   900/2000   45.0% | t 45.000 | ETA 1m 24s | step 0.08s | KE 278.8171 | drift +2.87% | fluid 72.5979 | solid 206.2193
  Impulse FP iterations last/mean/max 6/6.00/7
Step  1000/2000   50.0% | t 50.000 | ETA 1m 17s | step 0.09s | KE 280.9124 | drift +3.64% | fluid 72.5973 | solid 208.3151
  Impulse FP iterations last/mean/max 6/6.00/7
Step  1100/2000   55.0% | t 55.000 | ETA 1m 9s | step 0.08s | KE 283.2631 | drift +4.51% | fluid 72.5984 | solid 210.6647
  Impulse FP iterations last/mean/max 6/6.00/7
Step  1200/2000   60.0% | t 60.000 | ETA 1m 2s | step 0.09s | KE 285.8730 | drift +5.47% | fluid 72.5963 | solid 213.2767
  Impulse FP iterations last/mean/max 7/6.00/7
Step  1300/2000   65.0% | t 65.000 | ETA 54s | step 0.08s | KE 288.7440 | drift +6.53% | fluid 72.5983 | solid 216.1457
  Impulse FP iterations last/mean/max 6/6.00/7
Step  1400/2000   70.0% | t 70.000 | ETA 46s | step 0.07s | KE 291.8804 | drift +7.69% | fluid 72.5981 | solid 219.2823
  Impulse FP iterations last/mean/max 6/6.00/7
Step  1500/2000   75.0% | t 75.000 | ETA 39s | step 0.08s | KE 295.2841 | drift +8.94% | fluid 72.5990 | solid 222.6851
  Impulse FP iterations last/mean/max 6/6.01/7
Step  1600/2000   80.0% | t 80.000 | ETA 31s | step 0.08s | KE 298.9595 | drift +10.30% | fluid 72.5967 | solid 226.3628
  Impulse FP iterations last/mean/max 6/6.01/7
Step  1700/2000   85.0% | t 85.000 | ETA 23s | step 0.07s | KE 302.9083 | drift +11.76% | fluid 72.5974 | solid 230.3110
  Impulse FP iterations last/mean/max 6/6.01/7
Step  1800/2000   90.0% | t 90.000 | ETA 15s | step 0.07s | KE 307.1340 | drift +13.32% | fluid 72.5990 | solid 234.5351
  Impulse FP iterations last/mean/max 6/6.01/7
Step  1900/2000   95.0% | t 95.000 | ETA 7s | step 0.07s | KE 311.6400 | drift +14.98% | fluid 72.5973 | solid 239.0427
  Impulse FP iterations last/mean/max 6/6.02/7
Solver finished successfully - good job!
Results saved successfully.

================== Run summary ==================
  Bodies:            2
  Triangles / nodes: 256 / 516
  Timesteps:         2000  (dt = 0.05)
  Simulated time:    0 -> 100
  First-step setup:  4.072 s
  Mean time/step:    0.0766 s  (excl. first step)
  Total wall time:   2m 37s
  Impulse FP iters last/mean/max: 6 / 6.021 / 7
  Approx impulse solves/step:     6.022
  Impulse start cache hits/direct: 1999 / 1
  Impulse global drift P/H:       4.008996e-9 / 2.250508e-2
  Impulse per-body max drift P/H: 1.193221e-8 / 8.689189e-4
  CPU cores:         256 available, 8 Rayon worker thread(s)
  Started:           2026-06-24 02:23:12
  Finished:          2026-06-24 02:25:50
  Output file:       /work/e643/e643/shared/multi_ellip/studies/departing_sphericity_sweep/runs/spheroid_oblate/homogeneous/spheroid_oblate_homogeneous_eps0p0001_rho1_E0p5_sep8_run04_impulse_noproj/multiple_body_complete.dat
================================================
