
================ Simulation setup ================
  Run label:         /work/e643/e643/shared/multi_ellip/studies/two_body_paper_sweeps/runs/spheroid_1_0p7_0p7/spheroid_1_0p7_0p7_rho10_E0p2_sep5_run02_impulse_noproj/
  Started:           2026-06-22 19:23:17
  Input file:        /work/e643/e643/shared/multi_ellip/studies/two_body_paper_sweeps/runs/spheroid_1_0p7_0p7/spheroid_1_0p7_0p7_rho10_E0p2_sep5_run02_impulse_noproj/input.txt
  Output file:       /work/e643/e643/shared/multi_ellip/studies/two_body_paper_sweeps/runs/spheroid_1_0p7_0p7/spheroid_1_0p7_0p7_rho10_E0p2_sep5_run02_impulse_noproj/multiple_body_complete.dat
  Bodies:            2
  Fluid density:     1
  Mesh:              ndiv 2 -> 256 triangles / 516 nodes
  Simulated time:    0 -> 100  (dt = 0.05, ~2000 steps)
  Output cadence:    every 1 step(s)
  Output rows:       ~2001
  Progress cadence:  every 100 step(s)
  CPU cores:         256 available, 8 Rayon worker thread(s)
  Strong coupling:   disabled
  Impulse scheme:    enabled
  Hamiltonian step:  disabled
  Hamiltonian midpt: disabled
  Variational step:  disabled
  Energy projection: disabled
  Projection particular metric: Euclidean
  Fluid KE gradient: disabled  (eps = 0.001, scale = 1, linear = 1, angular = 1)
  Fluid KE discrete gradient: disabled
  Impulse pair metric correction: disabled  (mode = pair discrete-gradient, cutoff = all pairs, inner/outer = 0/0, eps = 0.001, linear scale = 1, angular scale = 0)
  Impulse metric correction: disabled  (internal load constraint = disabled)
  Impulse variational defect probe: disabled
  Impulse quadratic pressure: disabled  (scale = 1)
  Added-mass stab:   disabled
  Exact BEM geometry: disabled
  Exact singular BEM: disabled
  Legacy singular SLP diagnostic: disabled
  Phi-dot blend:     0 (off)

  Solver guidance:
    - Strong coupling: use for stiff close-coupled runs; slower but more implicit.
    - Impulse scheme: use when impulse/momentum conservation or KE drift is the focus. Recommended.
    - Added-mass stab: use for higher mesh counts (ndiv > 3) to preserve stability - deprecated.
================================================
Solver starting - good luck!

Initial state:
  Body  1
    density:          10.000000
    shape axes ratio: (1.000000, 0.700000, 0.700000)
    initial KE ratio: 0.200000
    position:         (-2.500000, 0.000000, 0.000000)
    velocity:         (9.571371, -0.802104, -1.540048)
    angular velocity: (0.136641, -6.219212, -0.883826)
    orientation:      (w=0.577350, i=0.577350, j=0.577350, k=0.000000)
  Body  2
    density:          10.000000
    shape axes ratio: (1.000000, 0.700000, 0.700000)
    initial KE ratio: 0.200000
    position:         (2.500000, 0.000000, 0.000000)
    velocity:         (8.273847, -0.693368, -1.331275)
    angular velocity: (-5.400529, 1.524073, -2.826643)
    orientation:      (w=0.577350, i=-0.577350, j=0.000000, k=0.577350)

Preparing first step: implicit scheme, no bootstrap passes required.
First step may take longer than later steps.

First step completed in 7.133 s.

Step   100/2000    5.0% | t 5.000 | ETA 3m 39s | step 0.09s | KE 4461.1938 | drift +0.83% | fluid 188.5132 | solid 4272.6807
  Impulse FP iterations last/mean/max 7/8.18/30
Step   200/2000   10.0% | t 10.000 | ETA 3m 4s | step 0.09s | KE 4397.7869 | drift -0.60% | fluid 194.5684 | solid 4203.2185
  Impulse FP iterations last/mean/max 7/7.53/30
Step   300/2000   15.0% | t 15.000 | ETA 2m 48s | step 0.09s | KE 4396.1895 | drift -0.64% | fluid 196.4495 | solid 4199.7400
  Impulse FP iterations last/mean/max 7/7.31/30
Step   400/2000   20.0% | t 20.000 | ETA 2m 37s | step 0.10s | KE 4395.1071 | drift -0.66% | fluid 210.0225 | solid 4185.0847
  Impulse FP iterations last/mean/max 7/7.21/30
Step   500/2000   25.0% | t 25.000 | ETA 2m 27s | step 0.09s | KE 4395.0710 | drift -0.66% | fluid 210.2040 | solid 4184.8670
  Impulse FP iterations last/mean/max 7/7.14/30
Step   600/2000   30.0% | t 30.000 | ETA 2m 17s | step 0.10s | KE 4395.7832 | drift -0.65% | fluid 195.8374 | solid 4199.9457
  Impulse FP iterations last/mean/max 7/7.10/30
Step   700/2000   35.0% | t 35.000 | ETA 2m 7s | step 0.11s | KE 4395.1041 | drift -0.66% | fluid 197.7156 | solid 4197.3885
  Impulse FP iterations last/mean/max 8/7.06/30
Step   800/2000   40.0% | t 40.000 | ETA 1m 57s | step 0.08s | KE 4394.5794 | drift -0.67% | fluid 217.0484 | solid 4177.5310
  Impulse FP iterations last/mean/max 6/7.04/30
Step   900/2000   45.0% | t 45.000 | ETA 1m 47s | step 0.10s | KE 4395.7881 | drift -0.65% | fluid 187.8620 | solid 4207.9261
  Impulse FP iterations last/mean/max 7/7.01/30
Step  1000/2000   50.0% | t 50.000 | ETA 1m 37s | step 0.10s | KE 4395.6387 | drift -0.65% | fluid 176.8459 | solid 4218.7927
  Impulse FP iterations last/mean/max 7/7.00/30
Step  1100/2000   55.0% | t 55.000 | ETA 1m 27s | step 0.10s | KE 4394.2724 | drift -0.68% | fluid 232.7176 | solid 4161.5548
  Impulse FP iterations last/mean/max 7/6.99/30
Step  1200/2000   60.0% | t 60.000 | ETA 1m 18s | step 0.09s | KE 4395.1766 | drift -0.66% | fluid 214.2143 | solid 4180.9623
  Impulse FP iterations last/mean/max 6/6.97/30
Step  1300/2000   65.0% | t 65.000 | ETA 1m 8s | step 0.10s | KE 4396.1467 | drift -0.64% | fluid 169.9659 | solid 4226.1807
  Impulse FP iterations last/mean/max 7/6.97/30
Step  1400/2000   70.0% | t 70.000 | ETA 58s | step 0.09s | KE 4394.8381 | drift -0.67% | fluid 223.0991 | solid 4171.7391
  Impulse FP iterations last/mean/max 6/6.96/30
Step  1500/2000   75.0% | t 75.000 | ETA 48s | step 0.10s | KE 4394.4811 | drift -0.68% | fluid 228.6762 | solid 4165.8050
  Impulse FP iterations last/mean/max 7/6.95/30
Step  1600/2000   80.0% | t 80.000 | ETA 39s | step 0.10s | KE 4395.7946 | drift -0.65% | fluid 170.7446 | solid 4225.0499
  Impulse FP iterations last/mean/max 7/6.95/30
Step  1700/2000   85.0% | t 85.000 | ETA 29s | step 0.08s | KE 4395.4454 | drift -0.65% | fluid 197.5949 | solid 4197.8505
  Impulse FP iterations last/mean/max 6/6.95/30
Step  1800/2000   90.0% | t 90.000 | ETA 19s | step 0.09s | KE 4394.5499 | drift -0.67% | fluid 220.0508 | solid 4174.4991
  Impulse FP iterations last/mean/max 7/6.94/30
Step  1900/2000   95.0% | t 95.000 | ETA 9s | step 0.08s | KE 4395.4097 | drift -0.65% | fluid 185.9371 | solid 4209.4725
  Impulse FP iterations last/mean/max 7/6.94/30
Solver finished successfully - good job!
Results saved successfully.

================== Run summary ==================
  Bodies:            2
  Triangles / nodes: 256 / 516
  Timesteps:         2000  (dt = 0.05)
  Simulated time:    0 -> 100
  First-step setup:  7.133 s
  Mean time/step:    0.0958 s  (excl. first step)
  Total wall time:   3m 18s
  Impulse FP iters last/mean/max: 6 / 6.938 / 30
  Approx impulse solves/step:     6.938
  Impulse start cache hits/direct: 1999 / 1
  Impulse global drift P/H:       1.899721e-3 / 3.826895e-1
  Impulse per-body max drift P/H: 2.495792e-3 / 1.552935e-1
  CPU cores:         256 available, 8 Rayon worker thread(s)
  Started:           2026-06-22 19:23:17
  Finished:          2026-06-22 19:26:37
  Output file:       /work/e643/e643/shared/multi_ellip/studies/two_body_paper_sweeps/runs/spheroid_1_0p7_0p7/spheroid_1_0p7_0p7_rho10_E0p2_sep5_run02_impulse_noproj/multiple_body_complete.dat
================================================
