
================ Simulation setup ================
  Run label:         /work/e643/e643/shared/multi_ellip/studies/departing_sphericity_sweep/runs/triaxial/homogeneous/triaxial_homogeneous_eps0p0001_rho1_E0p5_sep8_run05_impulse_noproj/
  Started:           2026-06-24 02:23:18
  Input file:        /work/e643/e643/shared/multi_ellip/studies/departing_sphericity_sweep/runs/triaxial/homogeneous/triaxial_homogeneous_eps0p0001_rho1_E0p5_sep8_run05_impulse_noproj/input.txt
  Output file:       /work/e643/e643/shared/multi_ellip/studies/departing_sphericity_sweep/runs/triaxial/homogeneous/triaxial_homogeneous_eps0p0001_rho1_E0p5_sep8_run05_impulse_noproj/multiple_body_complete.dat
  Bodies:            2
  Fluid density:     1
  Mesh:              ndiv 2 -> 256 triangles / 516 nodes
  Simulated time:    0 -> 100  (dt = 0.05, ~2000 steps)
  Output cadence:    every 1 step(s)
  Output rows:       ~2001
  Progress cadence:  every 100 step(s)
  CPU cores:         256 available, 8 Rayon worker thread(s)
  Strong coupling:   disabled
  Impulse scheme:    enabled
  Hamiltonian step:  disabled
  Hamiltonian midpt: disabled
  Variational step:  disabled
  Energy projection: disabled
  Projection particular metric: Euclidean
  Fluid KE gradient: disabled  (eps = 0.001, scale = 1, linear = 1, angular = 1)
  Fluid KE discrete gradient: disabled
  Impulse pair metric correction: disabled  (mode = pair discrete-gradient, cutoff = all pairs, inner/outer = 0/0, eps = 0.001, linear scale = 1, angular scale = 0)
  Impulse metric correction: disabled  (internal load constraint = disabled)
  Impulse variational defect probe: disabled
  Impulse quadratic pressure: disabled  (scale = 1)
  Added-mass stab:   disabled
  Exact BEM geometry: disabled
  Exact singular BEM: disabled
  Legacy singular SLP diagnostic: disabled
  Phi-dot blend:     0 (off)

  Solver guidance:
    - Strong coupling: use for stiff close-coupled runs; slower but more implicit.
    - Impulse scheme: use when impulse/momentum conservation or KE drift is the focus. Recommended.
    - Added-mass stab: use for higher mesh counts (ndiv > 3) to preserve stability - deprecated.
================================================
Solver starting - good luck!

Initial state:
  Body  1
    density:          1.000000
    shape axes ratio: (1.000000, 0.999900, 0.999800)
    initial KE ratio: 0.500000
    position:         (-4.000000, 0.000000, 0.000000)
    velocity:         (-0.881297, 5.299554, 1.650002)
    angular velocity: (-1.612025, -3.556733, 4.922341)
    orientation:      (w=0.104181, i=0.373755, j=0.736257, k=0.554418)
  Body  2
    density:          1.000000
    shape axes ratio: (1.000000, 0.999900, 0.999800)
    initial KE ratio: 0.500000
    position:         (4.000000, 0.000000, 0.000000)
    velocity:         (-0.881251, 5.299283, 1.649918)
    angular velocity: (-4.926612, 3.121623, 2.337175)
    orientation:      (w=-0.357668, i=0.345397, j=-0.866104, k=0.051356)

Preparing first step: implicit scheme, no bootstrap passes required.
First step may take longer than later steps.

First step completed in 0.252 s.

Step   100/2000    5.0% | t 5.000 | ETA 2m 41s | step 0.09s | KE 274.8017 | drift +1.39% | fluid 72.5926 | solid 202.2091
  Impulse FP iterations last/mean/max 6/6.00/6
Step   200/2000   10.0% | t 10.000 | ETA 2m 31s | step 0.09s | KE 278.8832 | drift +2.90% | fluid 72.5902 | solid 206.2929
  Impulse FP iterations last/mean/max 6/6.00/6
Step   300/2000   15.0% | t 15.000 | ETA 2m 23s | step 0.09s | KE 283.2814 | drift +4.52% | fluid 72.5932 | solid 210.6881
  Impulse FP iterations last/mean/max 6/5.99/6
Step   400/2000   20.0% | t 20.000 | ETA 2m 14s | step 0.09s | KE 287.9996 | drift +6.26% | fluid 72.5925 | solid 215.4071
  Impulse FP iterations last/mean/max 6/6.00/6
Step   500/2000   25.0% | t 25.000 | ETA 2m 6s | step 0.09s | KE 293.0395 | drift +8.12% | fluid 72.5915 | solid 220.4480
  Impulse FP iterations last/mean/max 6/5.99/6
Step   600/2000   30.0% | t 30.000 | ETA 1m 57s | step 0.08s | KE 298.4034 | drift +10.10% | fluid 72.5942 | solid 225.8093
  Impulse FP iterations last/mean/max 6/5.99/6
Step   700/2000   35.0% | t 35.000 | ETA 1m 48s | step 0.07s | KE 304.0944 | drift +12.20% | fluid 72.5925 | solid 231.5019
  Impulse FP iterations last/mean/max 6/5.99/6
Step   800/2000   40.0% | t 40.000 | ETA 1m 38s | step 0.08s | KE 310.1145 | drift +14.42% | fluid 72.5936 | solid 237.5209
  Impulse FP iterations last/mean/max 6/6.00/6
Step   900/2000   45.0% | t 45.000 | ETA 1m 29s | step 0.07s | KE 316.4658 | drift +16.76% | fluid 72.5932 | solid 243.8726
  Impulse FP iterations last/mean/max 6/5.99/6
Step  1000/2000   50.0% | t 50.000 | ETA 1m 20s | step 0.07s | KE 323.1516 | drift +19.23% | fluid 72.5903 | solid 250.5613
  Impulse FP iterations last/mean/max 6/6.00/6
Step  1100/2000   55.0% | t 55.000 | ETA 1m 12s | step 0.08s | KE 330.1733 | drift +21.82% | fluid 72.5909 | solid 257.5824
  Impulse FP iterations last/mean/max 6/6.00/6
Step  1200/2000   60.0% | t 60.000 | ETA 1m 5s | step 0.08s | KE 337.5332 | drift +24.53% | fluid 72.5945 | solid 264.9387
  Impulse FP iterations last/mean/max 6/6.00/6
Step  1300/2000   65.0% | t 65.000 | ETA 57s | step 0.09s | KE 345.2357 | drift +27.38% | fluid 72.5914 | solid 272.6443
  Impulse FP iterations last/mean/max 6/6.00/6
Step  1400/2000   70.0% | t 70.000 | ETA 49s | step 0.09s | KE 353.2809 | drift +30.34% | fluid 72.5940 | solid 280.6869
  Impulse FP iterations last/mean/max 6/6.00/6
Step  1500/2000   75.0% | t 75.000 | ETA 40s | step 0.09s | KE 361.6732 | drift +33.44% | fluid 72.5930 | solid 289.0802
  Impulse FP iterations last/mean/max 6/6.00/6
Step  1600/2000   80.0% | t 80.000 | ETA 32s | step 0.09s | KE 370.4141 | drift +36.67% | fluid 72.5927 | solid 297.8214
  Impulse FP iterations last/mean/max 6/6.00/6
Step  1700/2000   85.0% | t 85.000 | ETA 24s | step 0.08s | KE 379.5061 | drift +40.02% | fluid 72.5933 | solid 306.9128
  Impulse FP iterations last/mean/max 6/6.00/7
Step  1800/2000   90.0% | t 90.000 | ETA 16s | step 0.07s | KE 388.9530 | drift +43.51% | fluid 72.5913 | solid 316.3617
  Impulse FP iterations last/mean/max 6/6.00/7
Step  1900/2000   95.0% | t 95.000 | ETA 8s | step 0.08s | KE 398.7545 | drift +47.12% | fluid 72.5956 | solid 326.1589
  Impulse FP iterations last/mean/max 6/6.00/7
Solver finished successfully - good job!
Results saved successfully.

================== Run summary ==================
  Bodies:            2
  Triangles / nodes: 256 / 516
  Timesteps:         2000  (dt = 0.05)
  Simulated time:    0 -> 100
  First-step setup:  0.252 s
  Mean time/step:    0.0812 s  (excl. first step)
  Total wall time:   2m 42s
  Impulse FP iters last/mean/max: 6 / 6.002 / 7
  Approx impulse solves/step:     6.002
  Impulse start cache hits/direct: 1999 / 1
  Impulse global drift P/H:       1.682060e-9 / 1.118118e-2
  Impulse per-body max drift P/H: 3.332745e-9 / 9.985577e-4
  CPU cores:         256 available, 8 Rayon worker thread(s)
  Started:           2026-06-24 02:23:18
  Finished:          2026-06-24 02:26:02
  Output file:       /work/e643/e643/shared/multi_ellip/studies/departing_sphericity_sweep/runs/triaxial/homogeneous/triaxial_homogeneous_eps0p0001_rho1_E0p5_sep8_run05_impulse_noproj/multiple_body_complete.dat
================================================
