
================ Simulation setup ================
  Run label:         /work/e643/e643/shared/multi_ellip/studies/two_body_paper_sweeps/runs/spheroid_1_0p7_0p7/spheroid_1_0p7_0p7_rho4_E30_sep8_run01_impulse_noproj/
  Started:           2026-06-22 19:30:32
  Input file:        /work/e643/e643/shared/multi_ellip/studies/two_body_paper_sweeps/runs/spheroid_1_0p7_0p7/spheroid_1_0p7_0p7_rho4_E30_sep8_run01_impulse_noproj/input.txt
  Output file:       /work/e643/e643/shared/multi_ellip/studies/two_body_paper_sweeps/runs/spheroid_1_0p7_0p7/spheroid_1_0p7_0p7_rho4_E30_sep8_run01_impulse_noproj/multiple_body_complete.dat
  Bodies:            2
  Fluid density:     1
  Mesh:              ndiv 2 -> 256 triangles / 516 nodes
  Simulated time:    0 -> 100  (dt = 0.05, ~2000 steps)
  Output cadence:    every 1 step(s)
  Output rows:       ~2001
  Progress cadence:  every 100 step(s)
  CPU cores:         256 available, 8 Rayon worker thread(s)
  Strong coupling:   disabled
  Impulse scheme:    enabled
  Hamiltonian step:  disabled
  Hamiltonian midpt: disabled
  Variational step:  disabled
  Energy projection: disabled
  Projection particular metric: Euclidean
  Fluid KE gradient: disabled  (eps = 0.001, scale = 1, linear = 1, angular = 1)
  Fluid KE discrete gradient: disabled
  Impulse pair metric correction: disabled  (mode = pair discrete-gradient, cutoff = all pairs, inner/outer = 0/0, eps = 0.001, linear scale = 1, angular scale = 0)
  Impulse metric correction: disabled  (internal load constraint = disabled)
  Impulse variational defect probe: disabled
  Impulse quadratic pressure: disabled  (scale = 1)
  Added-mass stab:   disabled
  Exact BEM geometry: disabled
  Exact singular BEM: disabled
  Legacy singular SLP diagnostic: disabled
  Phi-dot blend:     0 (off)

  Solver guidance:
    - Strong coupling: use for stiff close-coupled runs; slower but more implicit.
    - Impulse scheme: use when impulse/momentum conservation or KE drift is the focus. Recommended.
    - Added-mass stab: use for higher mesh counts (ndiv > 3) to preserve stability - deprecated.
================================================
Solver starting - good luck!

Initial state:
  Body  1
    density:          4.000000
    shape axes ratio: (1.000000, 0.700000, 0.700000)
    initial KE ratio: 30.000000
    position:         (-4.000000, 0.000000, 0.000000)
    velocity:         (-0.393714, -0.000147, -0.637894)
    angular velocity: (3.552164, 5.164774, 0.430882)
    orientation:      (w=0.447214, i=0.894427, j=0.000000, k=0.000000)
  Body  2
    density:          4.000000
    shape axes ratio: (1.000000, 0.700000, 0.700000)
    initial KE ratio: 30.000000
    position:         (4.000000, 0.000000, 0.000000)
    velocity:         (-0.415436, -0.000155, -0.673088)
    angular velocity: (0.985152, -2.220829, 5.794464)
    orientation:      (w=0.707107, i=0.000000, j=0.707107, k=0.000000)

Preparing first step: implicit scheme, no bootstrap passes required.
First step may take longer than later steps.

First step completed in 0.332 s.

Step   100/2000    5.0% | t 5.000 | ETA 3m 28s | step 0.11s | KE 267.6183 | drift +0.03% | fluid 4.1292 | solid 263.4890
  Impulse FP iterations last/mean/max 8/7.73/8
Step   200/2000   10.0% | t 10.000 | ETA 3m 18s | step 0.12s | KE 267.6959 | drift +0.05% | fluid 4.0516 | solid 263.6442
  Impulse FP iterations last/mean/max 8/7.73/8
Step   300/2000   15.0% | t 15.000 | ETA 3m 9s | step 0.12s | KE 267.7732 | drift +0.08% | fluid 4.0982 | solid 263.6750
  Impulse FP iterations last/mean/max 8/7.75/8
Step   400/2000   20.0% | t 20.000 | ETA 2m 58s | step 0.12s | KE 267.8602 | drift +0.12% | fluid 4.1342 | solid 263.7259
  Impulse FP iterations last/mean/max 8/7.75/8
Step   500/2000   25.0% | t 25.000 | ETA 2m 47s | step 0.12s | KE 267.9506 | drift +0.15% | fluid 4.0575 | solid 263.8930
  Impulse FP iterations last/mean/max 8/7.77/8
Step   600/2000   30.0% | t 30.000 | ETA 2m 36s | step 0.12s | KE 268.0502 | drift +0.19% | fluid 4.1886 | solid 263.8616
  Impulse FP iterations last/mean/max 8/7.77/8
Step   700/2000   35.0% | t 35.000 | ETA 2m 25s | step 0.11s | KE 268.1584 | drift +0.23% | fluid 3.9872 | solid 264.1712
  Impulse FP iterations last/mean/max 8/7.78/8
Step   800/2000   40.0% | t 40.000 | ETA 2m 14s | step 0.11s | KE 268.2753 | drift +0.27% | fluid 4.1810 | solid 264.0943
  Impulse FP iterations last/mean/max 8/7.79/8
Step   900/2000   45.0% | t 45.000 | ETA 2m 3s | step 0.10s | KE 268.4071 | drift +0.32% | fluid 3.8613 | solid 264.5458
  Impulse FP iterations last/mean/max 8/7.80/8
Step  1000/2000   50.0% | t 50.000 | ETA 1m 52s | step 0.11s | KE 268.5438 | drift +0.37% | fluid 4.1018 | solid 264.4420
  Impulse FP iterations last/mean/max 8/7.81/8
Step  1100/2000   55.0% | t 55.000 | ETA 1m 41s | step 0.12s | KE 268.7047 | drift +0.43% | fluid 3.7361 | solid 264.9686
  Impulse FP iterations last/mean/max 8/7.82/8
Step  1200/2000   60.0% | t 60.000 | ETA 1m 30s | step 0.12s | KE 268.8600 | drift +0.49% | fluid 4.0770 | solid 264.7830
  Impulse FP iterations last/mean/max 8/7.84/8
Step  1300/2000   65.0% | t 65.000 | ETA 1m 19s | step 0.12s | KE 269.0547 | drift +0.56% | fluid 3.8512 | solid 265.2034
  Impulse FP iterations last/mean/max 8/7.85/8
Step  1400/2000   70.0% | t 70.000 | ETA 1m 7s | step 0.11s | KE 269.2554 | drift +0.64% | fluid 4.2482 | solid 265.0071
  Impulse FP iterations last/mean/max 8/7.86/8
Step  1500/2000   75.0% | t 75.000 | ETA 56s | step 0.12s | KE 269.5079 | drift +0.73% | fluid 4.1012 | solid 265.4067
  Impulse FP iterations last/mean/max 8/7.87/8
Step  1600/2000   80.0% | t 80.000 | ETA 45s | step 0.12s | KE 269.7864 | drift +0.84% | fluid 4.0815 | solid 265.7048
  Impulse FP iterations last/mean/max 8/7.87/8
Step  1700/2000   85.0% | t 85.000 | ETA 34s | step 0.11s | KE 270.0110 | drift +0.92% | fluid 4.0122 | solid 265.9988
  Impulse FP iterations last/mean/max 8/7.88/8
Step  1800/2000   90.0% | t 90.000 | ETA 22s | step 0.09s | KE 270.2708 | drift +1.02% | fluid 4.1243 | solid 266.1464
  Impulse FP iterations last/mean/max 8/7.89/9
Step  1900/2000   95.0% | t 95.000 | ETA 11s | step 0.08s | KE 270.5193 | drift +1.11% | fluid 4.2409 | solid 266.2784
  Impulse FP iterations last/mean/max 8/7.90/9
Solver finished successfully - good job!
Results saved successfully.

================== Run summary ==================
  Bodies:            2
  Triangles / nodes: 256 / 516
  Timesteps:         2000  (dt = 0.05)
  Simulated time:    0 -> 100
  First-step setup:  0.332 s
  Mean time/step:    0.1105 s  (excl. first step)
  Total wall time:   3m 41s
  Impulse FP iters last/mean/max: 8 / 7.910 / 9
  Approx impulse solves/step:     7.911
  Impulse start cache hits/direct: 1999 / 1
  Impulse global drift P/H:       9.825253e-9 / 9.482958e-3
  Impulse per-body max drift P/H: 2.748334e-8 / 9.442782e-3
  CPU cores:         256 available, 8 Rayon worker thread(s)
  Started:           2026-06-22 19:30:32
  Finished:          2026-06-22 19:34:14
  Output file:       /work/e643/e643/shared/multi_ellip/studies/two_body_paper_sweeps/runs/spheroid_1_0p7_0p7/spheroid_1_0p7_0p7_rho4_E30_sep8_run01_impulse_noproj/multiple_body_complete.dat
================================================
