
================ Simulation setup ================
  Run label:         /work/e643/e643/shared/multi_ellip/studies/two_body_paper_sweeps/runs/spheroid_1_0p7_0p7/spheroid_1_0p7_0p7_rho0p3_E1p5_sep5_run05_impulse_noproj/
  Started:           2026-06-24 01:46:05
  Input file:        /work/e643/e643/shared/multi_ellip/studies/two_body_paper_sweeps/runs/spheroid_1_0p7_0p7/spheroid_1_0p7_0p7_rho0p3_E1p5_sep5_run05_impulse_noproj/input.txt
  Output file:       /work/e643/e643/shared/multi_ellip/studies/two_body_paper_sweeps/runs/spheroid_1_0p7_0p7/spheroid_1_0p7_0p7_rho0p3_E1p5_sep5_run05_impulse_noproj/multiple_body_complete.dat
  Bodies:            2
  Fluid density:     1
  Mesh:              ndiv 2 -> 256 triangles / 516 nodes
  Simulated time:    0 -> 100  (dt = 0.05, ~2000 steps)
  Output cadence:    every 1 step(s)
  Output rows:       ~2001
  Progress cadence:  every 100 step(s)
  CPU cores:         256 available, 8 Rayon worker thread(s)
  Strong coupling:   disabled
  Impulse scheme:    enabled
  Hamiltonian step:  disabled
  Hamiltonian midpt: disabled
  Variational step:  disabled
  Energy projection: disabled
  Projection particular metric: Euclidean
  Fluid KE gradient: disabled  (eps = 0.001, scale = 1, linear = 1, angular = 1)
  Fluid KE discrete gradient: disabled
  Impulse pair metric correction: disabled  (mode = pair discrete-gradient, cutoff = all pairs, inner/outer = 0/0, eps = 0.001, linear scale = 1, angular scale = 0)
  Impulse metric correction: disabled  (internal load constraint = disabled)
  Impulse variational defect probe: disabled
  Impulse quadratic pressure: disabled  (scale = 1)
  Added-mass stab:   disabled
  Exact BEM geometry: disabled
  Exact singular BEM: disabled
  Legacy singular SLP diagnostic: disabled
  Phi-dot blend:     0 (off)

  Solver guidance:
    - Strong coupling: use for stiff close-coupled runs; slower but more implicit.
    - Impulse scheme: use when impulse/momentum conservation or KE drift is the focus. Recommended.
    - Added-mass stab: use for higher mesh counts (ndiv > 3) to preserve stability - deprecated.
================================================
Solver starting - good luck!

Initial state:
  Body  1
    density:          0.300000
    shape axes ratio: (1.000000, 0.700000, 0.700000)
    initial KE ratio: 1.500000
    position:         (-2.500000, 0.000000, 0.000000)
    velocity:         (2.140387, 0.647678, -2.629951)
    angular velocity: (-2.532145, 5.664536, -0.989797)
    orientation:      (w=-0.602910, i=0.255695, j=0.100001, k=0.749079)
  Body  2
    density:          0.300000
    shape axes ratio: (1.000000, 0.700000, 0.700000)
    initial KE ratio: 1.500000
    position:         (2.500000, 0.000000, 0.000000)
    velocity:         (2.202395, 0.666442, -2.706142)
    angular velocity: (0.094778, -5.790773, 2.436468)
    orientation:      (w=0.499812, i=-0.660279, j=0.557946, k=-0.053994)

Preparing first step: implicit scheme, no bootstrap passes required.
First step may take longer than later steps.

First step completed in 0.380 s.

Step   100/2000    5.0% | t 5.000 | ETA 5m 54s | step 0.19s | KE 78.8951 | drift +15.53% | fluid 33.8634 | solid 45.0317
  Impulse FP iterations last/mean/max 13/12.76/14
Step   200/2000   10.0% | t 10.000 | ETA 5m 30s | step 0.17s | KE 82.5732 | drift +20.91% | fluid 34.1357 | solid 48.4375
  Impulse FP iterations last/mean/max 12/12.70/14
Step   300/2000   15.0% | t 15.000 | ETA 5m 9s | step 0.19s | KE 82.0767 | drift +20.19% | fluid 33.9830 | solid 48.0937
  Impulse FP iterations last/mean/max 13/12.64/14
Step   400/2000   20.0% | t 20.000 | ETA 4m 49s | step 0.18s | KE 82.0069 | drift +20.08% | fluid 34.0707 | solid 47.9362
  Impulse FP iterations last/mean/max 12/12.58/14
Step   500/2000   25.0% | t 25.000 | ETA 4m 30s | step 0.16s | KE 81.8239 | drift +19.82% | fluid 34.0596 | solid 47.7642
  Impulse FP iterations last/mean/max 12/12.57/14
Step   600/2000   30.0% | t 30.000 | ETA 4m 12s | step 0.17s | KE 81.9051 | drift +19.94% | fluid 33.9602 | solid 47.9449
  Impulse FP iterations last/mean/max 12/12.55/14
Step   700/2000   35.0% | t 35.000 | ETA 3m 53s | step 0.17s | KE 82.0817 | drift +20.19% | fluid 34.0742 | solid 48.0075
  Impulse FP iterations last/mean/max 12/12.53/14
Step   800/2000   40.0% | t 40.000 | ETA 3m 35s | step 0.17s | KE 81.8358 | drift +19.83% | fluid 34.0743 | solid 47.7615
  Impulse FP iterations last/mean/max 12/12.53/14
Step   900/2000   45.0% | t 45.000 | ETA 3m 17s | step 0.18s | KE 82.0342 | drift +20.12% | fluid 33.9933 | solid 48.0409
  Impulse FP iterations last/mean/max 13/12.52/14
Step  1000/2000   50.0% | t 50.000 | ETA 2m 59s | step 0.18s | KE 81.9836 | drift +20.05% | fluid 34.0345 | solid 47.9491
  Impulse FP iterations last/mean/max 13/12.51/14
Step  1100/2000   55.0% | t 55.000 | ETA 2m 40s | step 0.16s | KE 81.9541 | drift +20.01% | fluid 34.1250 | solid 47.8292
  Impulse FP iterations last/mean/max 12/12.51/14
Step  1200/2000   60.0% | t 60.000 | ETA 2m 22s | step 0.15s | KE 82.0286 | drift +20.12% | fluid 34.0018 | solid 48.0268
  Impulse FP iterations last/mean/max 12/12.50/14
Step  1300/2000   65.0% | t 65.000 | ETA 2m 3s | step 0.16s | KE 81.8994 | drift +19.93% | fluid 33.9879 | solid 47.9114
  Impulse FP iterations last/mean/max 13/12.51/14
Step  1400/2000   70.0% | t 70.000 | ETA 1m 45s | step 0.18s | KE 82.0511 | drift +20.15% | fluid 34.1565 | solid 47.8946
  Impulse FP iterations last/mean/max 12/12.50/14
Step  1500/2000   75.0% | t 75.000 | ETA 1m 27s | step 0.17s | KE 81.8669 | drift +19.88% | fluid 33.9848 | solid 47.8821
  Impulse FP iterations last/mean/max 13/12.50/14
Step  1600/2000   80.0% | t 80.000 | ETA 1m 9s | step 0.17s | KE 81.9776 | drift +20.04% | fluid 33.9892 | solid 47.9884
  Impulse FP iterations last/mean/max 13/12.50/14
Step  1700/2000   85.0% | t 85.000 | ETA 52s | step 0.18s | KE 82.0506 | drift +20.15% | fluid 34.1398 | solid 47.9108
  Impulse FP iterations last/mean/max 12/12.49/14
Step  1800/2000   90.0% | t 90.000 | ETA 34s | step 0.19s | KE 81.7870 | drift +19.76% | fluid 34.0040 | solid 47.7830
  Impulse FP iterations last/mean/max 13/12.49/14
Step  1900/2000   95.0% | t 95.000 | ETA 17s | step 0.17s | KE 82.1510 | drift +20.30% | fluid 34.0262 | solid 48.1249
  Impulse FP iterations last/mean/max 12/12.49/14
Solver finished successfully - good job!
Results saved successfully.

================== Run summary ==================
  Bodies:            2
  Triangles / nodes: 256 / 516
  Timesteps:         2000  (dt = 0.05)
  Simulated time:    0 -> 100
  First-step setup:  0.380 s
  Mean time/step:    0.1739 s  (excl. first step)
  Total wall time:   5m 47s
  Impulse FP iters last/mean/max: 13 / 12.484 / 14
  Approx impulse solves/step:     12.485
  Impulse start cache hits/direct: 1999 / 1
  Impulse global drift P/H:       3.310550e-8 / 2.538433e-2
  Impulse per-body max drift P/H: 4.364022e-8 / 1.394273e-2
  CPU cores:         256 available, 8 Rayon worker thread(s)
  Started:           2026-06-24 01:46:05
  Finished:          2026-06-24 01:51:54
  Output file:       /work/e643/e643/shared/multi_ellip/studies/two_body_paper_sweeps/runs/spheroid_1_0p7_0p7/spheroid_1_0p7_0p7_rho0p3_E1p5_sep5_run05_impulse_noproj/multiple_body_complete.dat
================================================
