
================ Simulation setup ================
  Run label:         /work/e643/e643/shared/multi_ellip/studies/departing_sphericity_sweep/runs/spheroid_prolate/homogeneous/spheroid_prolate_homogeneous_eps0p1_rho1_E0p5_sep8_run08_impulse_noproj/
  Started:           2026-06-24 02:30:37
  Input file:        /work/e643/e643/shared/multi_ellip/studies/departing_sphericity_sweep/runs/spheroid_prolate/homogeneous/spheroid_prolate_homogeneous_eps0p1_rho1_E0p5_sep8_run08_impulse_noproj/input.txt
  Output file:       /work/e643/e643/shared/multi_ellip/studies/departing_sphericity_sweep/runs/spheroid_prolate/homogeneous/spheroid_prolate_homogeneous_eps0p1_rho1_E0p5_sep8_run08_impulse_noproj/multiple_body_complete.dat
  Bodies:            2
  Fluid density:     1
  Mesh:              ndiv 2 -> 256 triangles / 516 nodes
  Simulated time:    0 -> 100  (dt = 0.05, ~2000 steps)
  Output cadence:    every 1 step(s)
  Output rows:       ~2001
  Progress cadence:  every 100 step(s)
  CPU cores:         256 available, 8 Rayon worker thread(s)
  Strong coupling:   disabled
  Impulse scheme:    enabled
  Hamiltonian step:  disabled
  Hamiltonian midpt: disabled
  Variational step:  disabled
  Energy projection: disabled
  Projection particular metric: Euclidean
  Fluid KE gradient: disabled  (eps = 0.001, scale = 1, linear = 1, angular = 1)
  Fluid KE discrete gradient: disabled
  Impulse pair metric correction: disabled  (mode = pair discrete-gradient, cutoff = all pairs, inner/outer = 0/0, eps = 0.001, linear scale = 1, angular scale = 0)
  Impulse metric correction: disabled  (internal load constraint = disabled)
  Impulse variational defect probe: disabled
  Impulse quadratic pressure: disabled  (scale = 1)
  Added-mass stab:   disabled
  Exact BEM geometry: disabled
  Exact singular BEM: disabled
  Legacy singular SLP diagnostic: disabled
  Phi-dot blend:     0 (off)

  Solver guidance:
    - Strong coupling: use for stiff close-coupled runs; slower but more implicit.
    - Impulse scheme: use when impulse/momentum conservation or KE drift is the focus. Recommended.
    - Added-mass stab: use for higher mesh counts (ndiv > 3) to preserve stability - deprecated.
================================================
Solver starting - good luck!

Initial state:
  Body  1
    density:          1.000000
    shape axes ratio: (1.000000, 0.751315, 0.751315)
    initial KE ratio: 0.500000
    position:         (-4.000000, 0.000000, 0.000000)
    velocity:         (-0.642896, -2.226395, 5.156394)
    angular velocity: (4.063849, -4.663342, -1.103081)
    orientation:      (w=0.146122, i=0.261115, j=0.712959, k=0.634158)
  Body  2
    density:          1.000000
    shape axes ratio: (1.000000, 0.751315, 0.751315)
    initial KE ratio: 0.500000
    position:         (4.000000, 0.000000, 0.000000)
    velocity:         (-0.619055, -2.143833, 4.965179)
    angular velocity: (5.063143, -3.213760, 1.874766)
    orientation:      (w=-0.943252, i=0.077774, j=0.265809, k=-0.183227)

Preparing first step: implicit scheme, no bootstrap passes required.
First step may take longer than later steps.

First step completed in 0.283 s.

Step   100/2000    5.0% | t 5.000 | ETA 4m 23s | step 0.15s | KE 276.6753 | drift +0.52% | fluid 79.0728 | solid 197.6025
  Impulse FP iterations last/mean/max 10/9.70/10
Step   200/2000   10.0% | t 10.000 | ETA 4m 10s | step 0.13s | KE 277.0777 | drift +0.67% | fluid 77.1874 | solid 199.8904
  Impulse FP iterations last/mean/max 10/9.75/10
Step   300/2000   15.0% | t 15.000 | ETA 3m 57s | step 0.13s | KE 283.2388 | drift +2.91% | fluid 82.8209 | solid 200.4179
  Impulse FP iterations last/mean/max 10/9.79/10
Step   400/2000   20.0% | t 20.000 | ETA 3m 44s | step 0.14s | KE 299.9351 | drift +8.97% | fluid 83.1226 | solid 216.8124
  Impulse FP iterations last/mean/max 10/9.82/10
Step   500/2000   25.0% | t 25.000 | ETA 3m 28s | step 0.14s | KE 318.9611 | drift +15.89% | fluid 83.6268 | solid 235.3343
  Impulse FP iterations last/mean/max 10/9.83/11
Step   600/2000   30.0% | t 30.000 | ETA 3m 12s | step 0.13s | KE 333.3735 | drift +21.12% | fluid 82.9248 | solid 250.4487
  Impulse FP iterations last/mean/max 10/9.82/11
Step   700/2000   35.0% | t 35.000 | ETA 2m 59s | step 0.15s | KE 344.0599 | drift +25.00% | fluid 85.2567 | solid 258.8032
  Impulse FP iterations last/mean/max 10/9.83/11
Step   800/2000   40.0% | t 40.000 | ETA 2m 46s | step 0.14s | KE 363.5768 | drift +32.10% | fluid 84.6500 | solid 278.9268
  Impulse FP iterations last/mean/max 10/9.84/11
Step   900/2000   45.0% | t 45.000 | ETA 2m 33s | step 0.15s | KE 403.1084 | drift +46.46% | fluid 86.1328 | solid 316.9757
  Impulse FP iterations last/mean/max 10/9.85/11
Step  1000/2000   50.0% | t 50.000 | ETA 2m 19s | step 0.14s | KE 455.2455 | drift +65.40% | fluid 86.2712 | solid 368.9742
  Impulse FP iterations last/mean/max 10/9.87/11
Step  1100/2000   55.0% | t 55.000 | ETA 2m 6s | step 0.13s | KE 495.4682 | drift +80.01% | fluid 89.0212 | solid 406.4470
  Impulse FP iterations last/mean/max 9/9.88/11
Step  1200/2000   60.0% | t 60.000 | ETA 1m 52s | step 0.14s | KE 520.7662 | drift +89.21% | fluid 89.8116 | solid 430.9546
  Impulse FP iterations last/mean/max 10/9.88/11
Step  1300/2000   65.0% | t 65.000 | ETA 1m 38s | step 0.15s | KE 535.4456 | drift +94.54% | fluid 91.2161 | solid 444.2295
  Impulse FP iterations last/mean/max 10/9.89/11
Step  1400/2000   70.0% | t 70.000 | ETA 1m 24s | step 0.14s | KE 546.2357 | drift +98.46% | fluid 92.0608 | solid 454.1749
  Impulse FP iterations last/mean/max 10/9.89/11
Step  1500/2000   75.0% | t 75.000 | ETA 1m 10s | step 0.14s | KE 561.6109 | drift +104.05% | fluid 89.6052 | solid 472.0057
  Impulse FP iterations last/mean/max 10/9.90/11
Step  1600/2000   80.0% | t 80.000 | ETA 56s | step 0.11s | KE 576.0819 | drift +109.30% | fluid 88.2353 | solid 487.8466
  Impulse FP iterations last/mean/max 10/9.90/11
Step  1700/2000   85.0% | t 85.000 | ETA 41s | step 0.12s | KE 587.5228 | drift +113.46% | fluid 92.7452 | solid 494.7776
  Impulse FP iterations last/mean/max 10/9.91/11
Step  1800/2000   90.0% | t 90.000 | ETA 27s | step 0.12s | KE 599.7303 | drift +117.90% | fluid 90.6254 | solid 509.1050
  Impulse FP iterations last/mean/max 10/9.91/11
Step  1900/2000   95.0% | t 95.000 | ETA 13s | step 0.12s | KE 605.0879 | drift +119.84% | fluid 91.3467 | solid 513.7412
  Impulse FP iterations last/mean/max 10/9.91/11
Solver finished successfully - good job!
Results saved successfully.

================== Run summary ==================
  Bodies:            2
  Triangles / nodes: 256 / 516
  Timesteps:         2000  (dt = 0.05)
  Simulated time:    0 -> 100
  First-step setup:  0.283 s
  Mean time/step:    0.1366 s  (excl. first step)
  Total wall time:   4m 33s
  Impulse FP iters last/mean/max: 10 / 9.908 / 11
  Approx impulse solves/step:     9.909
  Impulse start cache hits/direct: 1999 / 1
  Impulse global drift P/H:       2.106072e-8 / 1.628073e-1
  Impulse per-body max drift P/H: 4.807575e-8 / 1.575559e-2
  CPU cores:         256 available, 8 Rayon worker thread(s)
  Started:           2026-06-24 02:30:37
  Finished:          2026-06-24 02:35:10
  Output file:       /work/e643/e643/shared/multi_ellip/studies/departing_sphericity_sweep/runs/spheroid_prolate/homogeneous/spheroid_prolate_homogeneous_eps0p1_rho1_E0p5_sep8_run08_impulse_noproj/multiple_body_complete.dat
================================================
