
================ Simulation setup ================
  Run label:         /work/e643/e643/shared/multi_ellip/studies/two_body_paper_sweeps/runs/ellipsoid_1_0p8_0p6/ellipsoid_1_0p8_0p6_rho0p3_E1p5_sep3_run03_impulse_noproj/
  Started:           2026-06-24 01:51:03
  Input file:        /work/e643/e643/shared/multi_ellip/studies/two_body_paper_sweeps/runs/ellipsoid_1_0p8_0p6/ellipsoid_1_0p8_0p6_rho0p3_E1p5_sep3_run03_impulse_noproj/input.txt
  Output file:       /work/e643/e643/shared/multi_ellip/studies/two_body_paper_sweeps/runs/ellipsoid_1_0p8_0p6/ellipsoid_1_0p8_0p6_rho0p3_E1p5_sep3_run03_impulse_noproj/multiple_body_complete.dat
  Bodies:            2
  Fluid density:     1
  Mesh:              ndiv 2 -> 256 triangles / 516 nodes
  Simulated time:    0 -> 100  (dt = 0.05, ~2000 steps)
  Output cadence:    every 1 step(s)
  Output rows:       ~2001
  Progress cadence:  every 100 step(s)
  CPU cores:         256 available, 8 Rayon worker thread(s)
  Strong coupling:   disabled
  Impulse scheme:    enabled
  Hamiltonian step:  disabled
  Hamiltonian midpt: disabled
  Variational step:  disabled
  Energy projection: disabled
  Projection particular metric: Euclidean
  Fluid KE gradient: disabled  (eps = 0.001, scale = 1, linear = 1, angular = 1)
  Fluid KE discrete gradient: disabled
  Impulse pair metric correction: disabled  (mode = pair discrete-gradient, cutoff = all pairs, inner/outer = 0/0, eps = 0.001, linear scale = 1, angular scale = 0)
  Impulse metric correction: disabled  (internal load constraint = disabled)
  Impulse variational defect probe: disabled
  Impulse quadratic pressure: disabled  (scale = 1)
  Added-mass stab:   disabled
  Exact BEM geometry: disabled
  Exact singular BEM: disabled
  Legacy singular SLP diagnostic: disabled
  Phi-dot blend:     0 (off)

  Solver guidance:
    - Strong coupling: use for stiff close-coupled runs; slower but more implicit.
    - Impulse scheme: use when impulse/momentum conservation or KE drift is the focus. Recommended.
    - Added-mass stab: use for higher mesh counts (ndiv > 3) to preserve stability - deprecated.
================================================
Solver starting - good luck!

Initial state:
  Body  1
    density:          0.300000
    shape axes ratio: (1.000000, 0.800000, 0.600000)
    initial KE ratio: 1.500000
    position:         (-1.500000, 0.000000, 0.000000)
    velocity:         (-2.192246, -2.423447, -1.289113)
    angular velocity: (-3.151885, 2.423939, 4.865034)
    orientation:      (w=-0.847969, i=-0.063981, j=0.016890, k=0.525899)
  Body  2
    density:          0.300000
    shape axes ratio: (1.000000, 0.800000, 0.600000)
    initial KE ratio: 1.500000
    position:         (1.500000, 0.000000, 0.000000)
    velocity:         (-1.845284, -2.039894, -1.085089)
    angular velocity: (-6.185744, -0.438794, -1.011163)
    orientation:      (w=0.424872, i=0.001931, j=0.515361, k=0.744233)

Preparing first step: implicit scheme, no bootstrap passes required.
First step may take longer than later steps.

First step completed in 0.332 s.

Step   100/2000    5.0% | t 5.000 | ETA 6m 41s | step 0.20s | KE 60.7047 | drift -11.54% | fluid 33.4256 | solid 27.2790
  Impulse FP iterations last/mean/max 14/14.59/16
Step   200/2000   10.0% | t 10.000 | ETA 6m 8s | step 0.20s | KE 61.3217 | drift -10.64% | fluid 34.4864 | solid 26.8353
  Impulse FP iterations last/mean/max 13/14.34/16
Step   300/2000   15.0% | t 15.000 | ETA 5m 45s | step 0.19s | KE 61.7357 | drift -10.03% | fluid 33.2186 | solid 28.5172
  Impulse FP iterations last/mean/max 14/14.29/16
Step   400/2000   20.0% | t 20.000 | ETA 5m 23s | step 0.19s | KE 61.7294 | drift -10.04% | fluid 33.1529 | solid 28.5765
  Impulse FP iterations last/mean/max 13/14.23/16
Step   500/2000   25.0% | t 25.000 | ETA 5m 1s | step 0.19s | KE 61.5379 | drift -10.32% | fluid 33.9153 | solid 27.6226
  Impulse FP iterations last/mean/max 14/14.22/16
Step   600/2000   30.0% | t 30.000 | ETA 4m 41s | step 0.19s | KE 61.5596 | drift -10.29% | fluid 32.4229 | solid 29.1367
  Impulse FP iterations last/mean/max 14/14.22/16
Step   700/2000   35.0% | t 35.000 | ETA 4m 20s | step 0.21s | KE 61.8143 | drift -9.92% | fluid 33.9906 | solid 27.8237
  Impulse FP iterations last/mean/max 14/14.18/16
Step   800/2000   40.0% | t 40.000 | ETA 4m 0s | step 0.19s | KE 61.7227 | drift -10.05% | fluid 32.3151 | solid 29.4076
  Impulse FP iterations last/mean/max 13/14.15/16
Step   900/2000   45.0% | t 45.000 | ETA 3m 39s | step 0.23s | KE 61.7565 | drift -10.00% | fluid 34.5372 | solid 27.2193
  Impulse FP iterations last/mean/max 16/14.14/16
Step  1000/2000   50.0% | t 50.000 | ETA 3m 19s | step 0.21s | KE 61.5778 | drift -10.26% | fluid 33.5961 | solid 27.9817
  Impulse FP iterations last/mean/max 14/14.15/16
Step  1100/2000   55.0% | t 55.000 | ETA 3m 0s | step 0.21s | KE 61.6834 | drift -10.11% | fluid 31.7382 | solid 29.9452
  Impulse FP iterations last/mean/max 15/14.15/16
Step  1200/2000   60.0% | t 60.000 | ETA 2m 39s | step 0.19s | KE 61.6608 | drift -10.14% | fluid 34.0019 | solid 27.6589
  Impulse FP iterations last/mean/max 14/14.14/16
Step  1300/2000   65.0% | t 65.000 | ETA 2m 19s | step 0.21s | KE 61.7196 | drift -10.06% | fluid 34.1469 | solid 27.5727
  Impulse FP iterations last/mean/max 14/14.13/16
Step  1400/2000   70.0% | t 70.000 | ETA 1m 59s | step 0.20s | KE 61.8137 | drift -9.92% | fluid 34.6738 | solid 27.1399
  Impulse FP iterations last/mean/max 15/14.13/16
Step  1500/2000   75.0% | t 75.000 | ETA 1m 39s | step 0.20s | KE 61.6818 | drift -10.11% | fluid 33.1276 | solid 28.5543
  Impulse FP iterations last/mean/max 15/14.13/16
Step  1600/2000   80.0% | t 80.000 | ETA 1m 19s | step 0.19s | KE 61.6838 | drift -10.11% | fluid 34.2835 | solid 27.4003
  Impulse FP iterations last/mean/max 14/14.12/16
Step  1700/2000   85.0% | t 85.000 | ETA 59s | step 0.21s | KE 61.8899 | drift -9.81% | fluid 35.1573 | solid 26.7325
  Impulse FP iterations last/mean/max 15/14.12/16
Step  1800/2000   90.0% | t 90.000 | ETA 39s | step 0.20s | KE 61.8444 | drift -9.88% | fluid 33.4785 | solid 28.3660
  Impulse FP iterations last/mean/max 14/14.11/16
Step  1900/2000   95.0% | t 95.000 | ETA 19s | step 0.21s | KE 61.6423 | drift -10.17% | fluid 32.6045 | solid 29.0378
  Impulse FP iterations last/mean/max 14/14.11/16
Solver finished successfully - good job!
Results saved successfully.

================== Run summary ==================
  Bodies:            2
  Triangles / nodes: 256 / 516
  Timesteps:         2000  (dt = 0.05)
  Simulated time:    0 -> 100
  First-step setup:  0.332 s
  Mean time/step:    0.1991 s  (excl. first step)
  Total wall time:   6m 38s
  Impulse FP iters last/mean/max: 14 / 14.110 / 16
  Approx impulse solves/step:     14.111
  Impulse start cache hits/direct: 1999 / 1
  Impulse global drift P/H:       1.507130e-8 / 5.031506e-2
  Impulse per-body max drift P/H: 1.614734e-8 / 1.571905e-2
  CPU cores:         256 available, 8 Rayon worker thread(s)
  Started:           2026-06-24 01:51:03
  Finished:          2026-06-24 01:57:42
  Output file:       /work/e643/e643/shared/multi_ellip/studies/two_body_paper_sweeps/runs/ellipsoid_1_0p8_0p6/ellipsoid_1_0p8_0p6_rho0p3_E1p5_sep3_run03_impulse_noproj/multiple_body_complete.dat
================================================
