
================ Simulation setup ================
  Run label:         /work/e643/e643/shared/multi_ellip/studies/two_body_paper_sweeps/runs/ellipsoid_1_0p8_0p6/ellipsoid_1_0p8_0p6_rho1_E0p55_sep5_run03_impulse_noproj/
  Started:           2026-06-24 01:33:30
  Input file:        /work/e643/e643/shared/multi_ellip/studies/two_body_paper_sweeps/runs/ellipsoid_1_0p8_0p6/ellipsoid_1_0p8_0p6_rho1_E0p55_sep5_run03_impulse_noproj/input.txt
  Output file:       /work/e643/e643/shared/multi_ellip/studies/two_body_paper_sweeps/runs/ellipsoid_1_0p8_0p6/ellipsoid_1_0p8_0p6_rho1_E0p55_sep5_run03_impulse_noproj/multiple_body_complete.dat
  Bodies:            2
  Fluid density:     1
  Mesh:              ndiv 2 -> 256 triangles / 516 nodes
  Simulated time:    0 -> 100  (dt = 0.05, ~2000 steps)
  Output cadence:    every 1 step(s)
  Output rows:       ~2001
  Progress cadence:  every 100 step(s)
  CPU cores:         256 available, 8 Rayon worker thread(s)
  Strong coupling:   disabled
  Impulse scheme:    enabled
  Hamiltonian step:  disabled
  Hamiltonian midpt: disabled
  Variational step:  disabled
  Energy projection: disabled
  Projection particular metric: Euclidean
  Fluid KE gradient: disabled  (eps = 0.001, scale = 1, linear = 1, angular = 1)
  Fluid KE discrete gradient: disabled
  Impulse pair metric correction: disabled  (mode = pair discrete-gradient, cutoff = all pairs, inner/outer = 0/0, eps = 0.001, linear scale = 1, angular scale = 0)
  Impulse metric correction: disabled  (internal load constraint = disabled)
  Impulse variational defect probe: disabled
  Impulse quadratic pressure: disabled  (scale = 1)
  Added-mass stab:   disabled
  Exact BEM geometry: disabled
  Exact singular BEM: disabled
  Legacy singular SLP diagnostic: disabled
  Phi-dot blend:     0 (off)

  Solver guidance:
    - Strong coupling: use for stiff close-coupled runs; slower but more implicit.
    - Impulse scheme: use when impulse/momentum conservation or KE drift is the focus. Recommended.
    - Added-mass stab: use for higher mesh counts (ndiv > 3) to preserve stability - deprecated.
================================================
Solver starting - good luck!

Initial state:
  Body  1
    density:          1.000000
    shape axes ratio: (1.000000, 0.800000, 0.600000)
    initial KE ratio: 0.550000
    position:         (-2.500000, 0.000000, 0.000000)
    velocity:         (2.320690, 0.821149, 5.012280)
    angular velocity: (-2.053798, 5.816995, 1.192854)
    orientation:      (w=0.543750, i=0.056886, j=0.759069, k=0.353432)
  Body  2
    density:          1.000000
    shape axes ratio: (1.000000, 0.800000, 0.600000)
    initial KE ratio: 0.550000
    position:         (2.500000, 0.000000, 0.000000)
    velocity:         (2.069609, 0.732307, 4.469988)
    angular velocity: (5.766395, -2.429974, 0.567744)
    orientation:      (w=-0.630568, i=-0.405537, j=-0.204038, k=-0.629517)

Preparing first step: implicit scheme, no bootstrap passes required.
First step may take longer than later steps.

First step completed in 0.383 s.

Step   100/2000    5.0% | t 5.000 | ETA 4m 57s | step 0.18s | KE 283.1094 | drift +5.64% | fluid 69.9340 | solid 213.1754
  Impulse FP iterations last/mean/max 12/11.36/12
Step   200/2000   10.0% | t 10.000 | ETA 4m 45s | step 0.16s | KE 284.1166 | drift +6.01% | fluid 64.1480 | solid 219.9686
  Impulse FP iterations last/mean/max 12/11.26/12
Step   300/2000   15.0% | t 15.000 | ETA 4m 31s | step 0.15s | KE 283.5148 | drift +5.79% | fluid 68.4818 | solid 215.0330
  Impulse FP iterations last/mean/max 11/11.26/12
Step   400/2000   20.0% | t 20.000 | ETA 4m 16s | step 0.16s | KE 282.9285 | drift +5.57% | fluid 79.3481 | solid 203.5804
  Impulse FP iterations last/mean/max 11/11.28/12
Step   500/2000   25.0% | t 25.000 | ETA 4m 1s | step 0.16s | KE 282.9637 | drift +5.58% | fluid 75.2461 | solid 207.7176
  Impulse FP iterations last/mean/max 11/11.27/12
Step   600/2000   30.0% | t 30.000 | ETA 3m 44s | step 0.15s | KE 283.6679 | drift +5.85% | fluid 68.3727 | solid 215.2953
  Impulse FP iterations last/mean/max 11/11.24/12
Step   700/2000   35.0% | t 35.000 | ETA 3m 29s | step 0.17s | KE 284.0165 | drift +5.98% | fluid 72.6973 | solid 211.3192
  Impulse FP iterations last/mean/max 11/11.26/12
Step   800/2000   40.0% | t 40.000 | ETA 3m 13s | step 0.16s | KE 283.8406 | drift +5.91% | fluid 66.9446 | solid 216.8959
  Impulse FP iterations last/mean/max 11/11.27/12
Step   900/2000   45.0% | t 45.000 | ETA 2m 57s | step 0.16s | KE 283.1682 | drift +5.66% | fluid 72.9907 | solid 210.1775
  Impulse FP iterations last/mean/max 11/11.25/12
Step  1000/2000   50.0% | t 50.000 | ETA 2m 41s | step 0.17s | KE 282.7373 | drift +5.50% | fluid 81.0818 | solid 201.6555
  Impulse FP iterations last/mean/max 12/11.26/12
Step  1100/2000   55.0% | t 55.000 | ETA 2m 25s | step 0.15s | KE 283.1636 | drift +5.66% | fluid 72.9800 | solid 210.1836
  Impulse FP iterations last/mean/max 11/11.25/12
Step  1200/2000   60.0% | t 60.000 | ETA 2m 8s | step 0.15s | KE 283.6454 | drift +5.84% | fluid 64.6586 | solid 218.9868
  Impulse FP iterations last/mean/max 11/11.25/12
Step  1300/2000   65.0% | t 65.000 | ETA 1m 52s | step 0.16s | KE 283.7450 | drift +5.88% | fluid 68.8555 | solid 214.8895
  Impulse FP iterations last/mean/max 11/11.25/12
Step  1400/2000   70.0% | t 70.000 | ETA 1m 36s | step 0.17s | KE 283.8621 | drift +5.92% | fluid 70.5453 | solid 213.3168
  Impulse FP iterations last/mean/max 12/11.26/12
Step  1500/2000   75.0% | t 75.000 | ETA 1m 20s | step 0.15s | KE 283.4397 | drift +5.76% | fluid 69.1094 | solid 214.3303
  Impulse FP iterations last/mean/max 11/11.25/12
Step  1600/2000   80.0% | t 80.000 | ETA 1m 3s | step 0.13s | KE 283.2757 | drift +5.70% | fluid 70.1760 | solid 213.0997
  Impulse FP iterations last/mean/max 11/11.25/12
Step  1700/2000   85.0% | t 85.000 | ETA 47s | step 0.13s | KE 282.8743 | drift +5.55% | fluid 79.8790 | solid 202.9954
  Impulse FP iterations last/mean/max 11/11.25/12
Step  1800/2000   90.0% | t 90.000 | ETA 31s | step 0.12s | KE 283.3977 | drift +5.75% | fluid 71.6540 | solid 211.7437
  Impulse FP iterations last/mean/max 11/11.25/12
Step  1900/2000   95.0% | t 95.000 | ETA 15s | step 0.11s | KE 283.6821 | drift +5.85% | fluid 68.6611 | solid 215.0210
  Impulse FP iterations last/mean/max 11/11.25/12
Solver finished successfully - good job!
Results saved successfully.

================== Run summary ==================
  Bodies:            2
  Triangles / nodes: 256 / 516
  Timesteps:         2000  (dt = 0.05)
  Simulated time:    0 -> 100
  First-step setup:  0.383 s
  Mean time/step:    0.1511 s  (excl. first step)
  Total wall time:   5m 2s
  Impulse FP iters last/mean/max: 11 / 11.247 / 13
  Approx impulse solves/step:     11.248
  Impulse start cache hits/direct: 1999 / 1
  Impulse global drift P/H:       4.092479e-9 / 3.595294e-2
  Impulse per-body max drift P/H: 8.115650e-9 / 4.923894e-3
  CPU cores:         256 available, 8 Rayon worker thread(s)
  Started:           2026-06-24 01:33:30
  Finished:          2026-06-24 01:38:33
  Output file:       /work/e643/e643/shared/multi_ellip/studies/two_body_paper_sweeps/runs/ellipsoid_1_0p8_0p6/ellipsoid_1_0p8_0p6_rho1_E0p55_sep5_run03_impulse_noproj/multiple_body_complete.dat
================================================
