
================ Simulation setup ================
  Run label:         /work/e643/e643/shared/multi_ellip/studies/departing_sphericity_sweep/runs/spheroid_prolate/homogeneous/spheroid_prolate_homogeneous_eps0p1_rho1_E0p5_sep8_run01_impulse_noproj/
  Started:           2026-06-24 02:30:36
  Input file:        /work/e643/e643/shared/multi_ellip/studies/departing_sphericity_sweep/runs/spheroid_prolate/homogeneous/spheroid_prolate_homogeneous_eps0p1_rho1_E0p5_sep8_run01_impulse_noproj/input.txt
  Output file:       /work/e643/e643/shared/multi_ellip/studies/departing_sphericity_sweep/runs/spheroid_prolate/homogeneous/spheroid_prolate_homogeneous_eps0p1_rho1_E0p5_sep8_run01_impulse_noproj/multiple_body_complete.dat
  Bodies:            2
  Fluid density:     1
  Mesh:              ndiv 2 -> 256 triangles / 516 nodes
  Simulated time:    0 -> 100  (dt = 0.05, ~2000 steps)
  Output cadence:    every 1 step(s)
  Output rows:       ~2001
  Progress cadence:  every 100 step(s)
  CPU cores:         256 available, 8 Rayon worker thread(s)
  Strong coupling:   disabled
  Impulse scheme:    enabled
  Hamiltonian step:  disabled
  Hamiltonian midpt: disabled
  Variational step:  disabled
  Energy projection: disabled
  Projection particular metric: Euclidean
  Fluid KE gradient: disabled  (eps = 0.001, scale = 1, linear = 1, angular = 1)
  Fluid KE discrete gradient: disabled
  Impulse pair metric correction: disabled  (mode = pair discrete-gradient, cutoff = all pairs, inner/outer = 0/0, eps = 0.001, linear scale = 1, angular scale = 0)
  Impulse metric correction: disabled  (internal load constraint = disabled)
  Impulse variational defect probe: disabled
  Impulse quadratic pressure: disabled  (scale = 1)
  Added-mass stab:   disabled
  Exact BEM geometry: disabled
  Exact singular BEM: disabled
  Legacy singular SLP diagnostic: disabled
  Phi-dot blend:     0 (off)

  Solver guidance:
    - Strong coupling: use for stiff close-coupled runs; slower but more implicit.
    - Impulse scheme: use when impulse/momentum conservation or KE drift is the focus. Recommended.
    - Added-mass stab: use for higher mesh counts (ndiv > 3) to preserve stability - deprecated.
================================================
Solver starting - good luck!

Initial state:
  Body  1
    density:          1.000000
    shape axes ratio: (1.000000, 0.751315, 0.751315)
    initial KE ratio: 0.500000
    position:         (-4.000000, 0.000000, 0.000000)
    velocity:         (-4.769825, 1.811365, 2.692554)
    angular velocity: (-3.365358, 1.764666, -5.003872)
    orientation:      (w=-0.785705, i=0.485305, j=0.010972, k=0.383441)
  Body  2
    density:          1.000000
    shape axes ratio: (1.000000, 0.751315, 0.751315)
    initial KE ratio: 0.500000
    position:         (4.000000, 0.000000, 0.000000)
    velocity:         (-4.916738, 1.867155, 2.775486)
    angular velocity: (-1.778695, 4.341782, -4.178947)
    orientation:      (w=-0.770566, i=-0.308468, j=-0.498361, k=-0.250425)

Preparing first step: implicit scheme, no bootstrap passes required.
First step may take longer than later steps.

First step completed in 0.268 s.

Step   100/2000    5.0% | t 5.000 | ETA 4m 23s | step 0.14s | KE 278.1519 | drift -4.04% | fluid 83.5936 | solid 194.5582
  Impulse FP iterations last/mean/max 10/9.86/10
Step   200/2000   10.0% | t 10.000 | ETA 4m 11s | step 0.14s | KE 286.3256 | drift -1.22% | fluid 83.9174 | solid 202.4083
  Impulse FP iterations last/mean/max 9/9.85/10
Step   300/2000   15.0% | t 15.000 | ETA 3m 57s | step 0.13s | KE 286.2142 | drift -1.26% | fluid 81.2019 | solid 205.0123
  Impulse FP iterations last/mean/max 9/9.81/10
Step   400/2000   20.0% | t 20.000 | ETA 3m 42s | step 0.14s | KE 286.1066 | drift -1.29% | fluid 79.3895 | solid 206.7171
  Impulse FP iterations last/mean/max 9/9.78/10
Step   500/2000   25.0% | t 25.000 | ETA 3m 28s | step 0.16s | KE 285.8277 | drift -1.39% | fluid 78.8580 | solid 206.9697
  Impulse FP iterations last/mean/max 10/9.75/10
Step   600/2000   30.0% | t 30.000 | ETA 3m 13s | step 0.15s | KE 286.2064 | drift -1.26% | fluid 79.4474 | solid 206.7590
  Impulse FP iterations last/mean/max 10/9.73/10
Step   700/2000   35.0% | t 35.000 | ETA 3m 0s | step 0.15s | KE 286.2478 | drift -1.25% | fluid 81.2695 | solid 204.9783
  Impulse FP iterations last/mean/max 10/9.73/10
Step   800/2000   40.0% | t 40.000 | ETA 2m 46s | step 0.14s | KE 286.0648 | drift -1.31% | fluid 83.5073 | solid 202.5574
  Impulse FP iterations last/mean/max 10/9.73/10
Step   900/2000   45.0% | t 45.000 | ETA 2m 32s | step 0.14s | KE 286.0396 | drift -1.32% | fluid 85.2059 | solid 200.8337
  Impulse FP iterations last/mean/max 10/9.73/10
Step  1000/2000   50.0% | t 50.000 | ETA 2m 18s | step 0.14s | KE 286.0308 | drift -1.32% | fluid 85.5666 | solid 200.4642
  Impulse FP iterations last/mean/max 10/9.72/10
Step  1100/2000   55.0% | t 55.000 | ETA 2m 4s | step 0.15s | KE 286.1117 | drift -1.29% | fluid 85.0948 | solid 201.0169
  Impulse FP iterations last/mean/max 10/9.71/10
Step  1200/2000   60.0% | t 60.000 | ETA 1m 50s | step 0.15s | KE 286.2118 | drift -1.26% | fluid 84.9281 | solid 201.2837
  Impulse FP iterations last/mean/max 10/9.71/10
Step  1300/2000   65.0% | t 65.000 | ETA 1m 36s | step 0.14s | KE 286.1395 | drift -1.28% | fluid 85.6841 | solid 200.4554
  Impulse FP iterations last/mean/max 10/9.71/10
Step  1400/2000   70.0% | t 70.000 | ETA 1m 22s | step 0.14s | KE 285.9979 | drift -1.33% | fluid 86.8643 | solid 199.1335
  Impulse FP iterations last/mean/max 10/9.70/10
Step  1500/2000   75.0% | t 75.000 | ETA 1m 9s | step 0.12s | KE 285.9059 | drift -1.36% | fluid 87.2943 | solid 198.6116
  Impulse FP iterations last/mean/max 9/9.70/10
Step  1600/2000   80.0% | t 80.000 | ETA 55s | step 0.13s | KE 285.9209 | drift -1.36% | fluid 86.2039 | solid 199.7170
  Impulse FP iterations last/mean/max 9/9.70/10
Step  1700/2000   85.0% | t 85.000 | ETA 41s | step 0.13s | KE 286.0474 | drift -1.31% | fluid 84.1026 | solid 201.9448
  Impulse FP iterations last/mean/max 10/9.70/10
Step  1800/2000   90.0% | t 90.000 | ETA 27s | step 0.14s | KE 286.1739 | drift -1.27% | fluid 82.0704 | solid 204.1036
  Impulse FP iterations last/mean/max 10/9.70/10
Step  1900/2000   95.0% | t 95.000 | ETA 13s | step 0.13s | KE 286.2337 | drift -1.25% | fluid 80.8883 | solid 205.3454
  Impulse FP iterations last/mean/max 10/9.70/10
Solver finished successfully - good job!
Results saved successfully.

================== Run summary ==================
  Bodies:            2
  Triangles / nodes: 256 / 516
  Timesteps:         2000  (dt = 0.05)
  Simulated time:    0 -> 100
  First-step setup:  0.268 s
  Mean time/step:    0.1350 s  (excl. first step)
  Total wall time:   4m 30s
  Impulse FP iters last/mean/max: 10 / 9.700 / 10
  Approx impulse solves/step:     9.701
  Impulse start cache hits/direct: 1999 / 1
  Impulse global drift P/H:       1.588911e-8 / 1.327484e-2
  Impulse per-body max drift P/H: 1.647649e-8 / 3.022918e-3
  CPU cores:         256 available, 8 Rayon worker thread(s)
  Started:           2026-06-24 02:30:36
  Finished:          2026-06-24 02:35:07
  Output file:       /work/e643/e643/shared/multi_ellip/studies/departing_sphericity_sweep/runs/spheroid_prolate/homogeneous/spheroid_prolate_homogeneous_eps0p1_rho1_E0p5_sep8_run01_impulse_noproj/multiple_body_complete.dat
================================================
