
================ Simulation setup ================
  Run label:         /work/e643/e643/shared/multi_ellip/studies/two_body_paper_sweeps/runs/ellipsoid_1_0p8_0p6/ellipsoid_1_0p8_0p6_rho1_E0p2_sep5_run03_impulse_noproj/
  Started:           2026-06-24 01:33:28
  Input file:        /work/e643/e643/shared/multi_ellip/studies/two_body_paper_sweeps/runs/ellipsoid_1_0p8_0p6/ellipsoid_1_0p8_0p6_rho1_E0p2_sep5_run03_impulse_noproj/input.txt
  Output file:       /work/e643/e643/shared/multi_ellip/studies/two_body_paper_sweeps/runs/ellipsoid_1_0p8_0p6/ellipsoid_1_0p8_0p6_rho1_E0p2_sep5_run03_impulse_noproj/multiple_body_complete.dat
  Bodies:            2
  Fluid density:     1
  Mesh:              ndiv 2 -> 256 triangles / 516 nodes
  Simulated time:    0 -> 100  (dt = 0.05, ~2000 steps)
  Output cadence:    every 1 step(s)
  Output rows:       ~2001
  Progress cadence:  every 100 step(s)
  CPU cores:         256 available, 8 Rayon worker thread(s)
  Strong coupling:   disabled
  Impulse scheme:    enabled
  Hamiltonian step:  disabled
  Hamiltonian midpt: disabled
  Variational step:  disabled
  Energy projection: disabled
  Projection particular metric: Euclidean
  Fluid KE gradient: disabled  (eps = 0.001, scale = 1, linear = 1, angular = 1)
  Fluid KE discrete gradient: disabled
  Impulse pair metric correction: disabled  (mode = pair discrete-gradient, cutoff = all pairs, inner/outer = 0/0, eps = 0.001, linear scale = 1, angular scale = 0)
  Impulse metric correction: disabled  (internal load constraint = disabled)
  Impulse variational defect probe: disabled
  Impulse quadratic pressure: disabled  (scale = 1)
  Added-mass stab:   disabled
  Exact BEM geometry: disabled
  Exact singular BEM: disabled
  Legacy singular SLP diagnostic: disabled
  Phi-dot blend:     0 (off)

  Solver guidance:
    - Strong coupling: use for stiff close-coupled runs; slower but more implicit.
    - Impulse scheme: use when impulse/momentum conservation or KE drift is the focus. Recommended.
    - Added-mass stab: use for higher mesh counts (ndiv > 3) to preserve stability - deprecated.
================================================
Solver starting - good luck!

Initial state:
  Body  1
    density:          1.000000
    shape axes ratio: (1.000000, 0.800000, 0.600000)
    initial KE ratio: 0.200000
    position:         (-2.500000, 0.000000, 0.000000)
    velocity:         (8.131682, 5.531348, -1.528309)
    angular velocity: (-2.472862, -0.612566, -5.743530)
    orientation:      (w=0.541348, i=-0.086750, j=0.668315, k=0.502764)
  Body  2
    density:          1.000000
    shape axes ratio: (1.000000, 0.800000, 0.600000)
    initial KE ratio: 0.200000
    position:         (2.500000, 0.000000, 0.000000)
    velocity:         (7.506737, 5.106247, -1.410854)
    angular velocity: (3.940317, 3.304360, -3.610197)
    orientation:      (w=0.606176, i=-0.576849, j=0.043696, k=-0.545790)

Preparing first step: implicit scheme, no bootstrap passes required.
First step may take longer than later steps.

First step completed in 0.343 s.

Step   100/2000    5.0% | t 5.000 | ETA 5m 29s | step 0.18s | KE 758.5258 | drift -0.48% | fluid 304.0713 | solid 454.4544
  Impulse FP iterations last/mean/max 12/12.04/13
Step   200/2000   10.0% | t 10.000 | ETA 5m 8s | step 0.18s | KE 759.6990 | drift -0.33% | fluid 308.3550 | solid 451.3440
  Impulse FP iterations last/mean/max 12/11.95/13
Step   300/2000   15.0% | t 15.000 | ETA 4m 47s | step 0.16s | KE 761.6152 | drift -0.07% | fluid 303.1726 | solid 458.4426
  Impulse FP iterations last/mean/max 12/11.92/13
Step   400/2000   20.0% | t 20.000 | ETA 4m 22s | step 0.15s | KE 760.2004 | drift -0.26% | fluid 302.0006 | solid 458.1999
  Impulse FP iterations last/mean/max 12/11.90/13
Step   500/2000   25.0% | t 25.000 | ETA 4m 2s | step 0.15s | KE 760.7890 | drift -0.18% | fluid 304.1059 | solid 456.6831
  Impulse FP iterations last/mean/max 12/11.91/13
Step   600/2000   30.0% | t 30.000 | ETA 3m 48s | step 0.18s | KE 761.0907 | drift -0.14% | fluid 299.4480 | solid 461.6427
  Impulse FP iterations last/mean/max 12/11.90/13
Step   700/2000   35.0% | t 35.000 | ETA 3m 33s | step 0.18s | KE 760.3491 | drift -0.24% | fluid 301.8343 | solid 458.5148
  Impulse FP iterations last/mean/max 12/11.90/13
Step   800/2000   40.0% | t 40.000 | ETA 3m 18s | step 0.18s | KE 761.2567 | drift -0.12% | fluid 301.2728 | solid 459.9839
  Impulse FP iterations last/mean/max 12/11.90/13
Step   900/2000   45.0% | t 45.000 | ETA 3m 2s | step 0.18s | KE 760.4398 | drift -0.23% | fluid 298.6270 | solid 461.8128
  Impulse FP iterations last/mean/max 12/11.90/13
Step  1000/2000   50.0% | t 50.000 | ETA 2m 46s | step 0.17s | KE 760.8878 | drift -0.17% | fluid 302.6199 | solid 458.2679
  Impulse FP iterations last/mean/max 12/11.90/13
Step  1100/2000   55.0% | t 55.000 | ETA 2m 30s | step 0.18s | KE 760.8384 | drift -0.18% | fluid 300.7493 | solid 460.0891
  Impulse FP iterations last/mean/max 12/11.90/13
Step  1200/2000   60.0% | t 60.000 | ETA 2m 13s | step 0.16s | KE 760.1538 | drift -0.27% | fluid 299.1138 | solid 461.0400
  Impulse FP iterations last/mean/max 12/11.90/13
Step  1300/2000   65.0% | t 65.000 | ETA 1m 57s | step 0.17s | KE 761.4338 | drift -0.10% | fluid 303.4794 | solid 457.9544
  Impulse FP iterations last/mean/max 12/11.90/13
Step  1400/2000   70.0% | t 70.000 | ETA 1m 40s | step 0.17s | KE 760.3925 | drift -0.23% | fluid 300.9112 | solid 459.4813
  Impulse FP iterations last/mean/max 12/11.90/13
Step  1500/2000   75.0% | t 75.000 | ETA 1m 23s | step 0.15s | KE 760.4323 | drift -0.23% | fluid 299.3855 | solid 461.0468
  Impulse FP iterations last/mean/max 12/11.90/13
Step  1600/2000   80.0% | t 80.000 | ETA 1m 5s | step 0.11s | KE 761.1644 | drift -0.13% | fluid 303.6491 | solid 457.5153
  Impulse FP iterations last/mean/max 11/11.90/13
Step  1700/2000   85.0% | t 85.000 | ETA 48s | step 0.11s | KE 760.3690 | drift -0.24% | fluid 300.4295 | solid 459.9395
  Impulse FP iterations last/mean/max 11/11.90/13
Step  1800/2000   90.0% | t 90.000 | ETA 31s | step 0.12s | KE 761.1912 | drift -0.13% | fluid 300.2107 | solid 460.9805
  Impulse FP iterations last/mean/max 12/11.90/13
Step  1900/2000   95.0% | t 95.000 | ETA 15s | step 0.12s | KE 760.3510 | drift -0.24% | fluid 303.5797 | solid 456.7712
  Impulse FP iterations last/mean/max 12/11.90/13
Solver finished successfully - good job!
Results saved successfully.

================== Run summary ==================
  Bodies:            2
  Triangles / nodes: 256 / 516
  Timesteps:         2000  (dt = 0.05)
  Simulated time:    0 -> 100
  First-step setup:  0.343 s
  Mean time/step:    0.1548 s  (excl. first step)
  Total wall time:   5m 9s
  Impulse FP iters last/mean/max: 12 / 11.903 / 13
  Approx impulse solves/step:     11.904
  Impulse start cache hits/direct: 1999 / 1
  Impulse global drift P/H:       1.933545e-8 / 7.042106e-3
  Impulse per-body max drift P/H: 2.397670e-8 / 2.057018e-3
  CPU cores:         256 available, 8 Rayon worker thread(s)
  Started:           2026-06-24 01:33:28
  Finished:          2026-06-24 01:38:38
  Output file:       /work/e643/e643/shared/multi_ellip/studies/two_body_paper_sweeps/runs/ellipsoid_1_0p8_0p6/ellipsoid_1_0p8_0p6_rho1_E0p2_sep5_run03_impulse_noproj/multiple_body_complete.dat
================================================
