
================ Simulation setup ================
  Run label:         /work/e643/e643/shared/multi_ellip/studies/two_body_paper_sweeps/runs/ellipsoid_1_0p8_0p6/ellipsoid_1_0p8_0p6_rho10_E4_sep3_run03_impulse_noproj/
  Started:           2026-06-24 01:21:16
  Input file:        /work/e643/e643/shared/multi_ellip/studies/two_body_paper_sweeps/runs/ellipsoid_1_0p8_0p6/ellipsoid_1_0p8_0p6_rho10_E4_sep3_run03_impulse_noproj/input.txt
  Output file:       /work/e643/e643/shared/multi_ellip/studies/two_body_paper_sweeps/runs/ellipsoid_1_0p8_0p6/ellipsoid_1_0p8_0p6_rho10_E4_sep3_run03_impulse_noproj/multiple_body_complete.dat
  Bodies:            2
  Fluid density:     1
  Mesh:              ndiv 2 -> 256 triangles / 516 nodes
  Simulated time:    0 -> 100  (dt = 0.05, ~2000 steps)
  Output cadence:    every 1 step(s)
  Output rows:       ~2001
  Progress cadence:  every 100 step(s)
  CPU cores:         256 available, 8 Rayon worker thread(s)
  Strong coupling:   disabled
  Impulse scheme:    enabled
  Hamiltonian step:  disabled
  Hamiltonian midpt: disabled
  Variational step:  disabled
  Energy projection: disabled
  Projection particular metric: Euclidean
  Fluid KE gradient: disabled  (eps = 0.001, scale = 1, linear = 1, angular = 1)
  Fluid KE discrete gradient: disabled
  Impulse pair metric correction: disabled  (mode = pair discrete-gradient, cutoff = all pairs, inner/outer = 0/0, eps = 0.001, linear scale = 1, angular scale = 0)
  Impulse metric correction: disabled  (internal load constraint = disabled)
  Impulse variational defect probe: disabled
  Impulse quadratic pressure: disabled  (scale = 1)
  Added-mass stab:   disabled
  Exact BEM geometry: disabled
  Exact singular BEM: disabled
  Legacy singular SLP diagnostic: disabled
  Phi-dot blend:     0 (off)

  Solver guidance:
    - Strong coupling: use for stiff close-coupled runs; slower but more implicit.
    - Impulse scheme: use when impulse/momentum conservation or KE drift is the focus. Recommended.
    - Added-mass stab: use for higher mesh counts (ndiv > 3) to preserve stability - deprecated.
================================================
Solver starting - good luck!

Initial state:
  Body  1
    density:          10.000000
    shape axes ratio: (1.000000, 0.800000, 0.600000)
    initial KE ratio: 4.000000
    position:         (-1.500000, 0.000000, 0.000000)
    velocity:         (0.243856, 0.054640, 1.838118)
    angular velocity: (5.716247, 2.420748, -0.971038)
    orientation:      (w=0.759517, i=0.225676, j=0.609118, k=0.034342)
  Body  2
    density:          10.000000
    shape axes ratio: (1.000000, 0.800000, 0.600000)
    initial KE ratio: 4.000000
    position:         (1.500000, 0.000000, 0.000000)
    velocity:         (0.289896, 0.064957, 2.185160)
    angular velocity: (1.753680, -3.353618, 5.015602)
    orientation:      (w=-0.219111, i=-0.533735, j=-0.405418, k=0.709051)

Preparing first step: implicit scheme, no bootstrap passes required.
First step may take longer than later steps.

First step completed in 0.230 s.

Step   100/2000    5.0% | t 5.000 | ETA 3m 2s | step 0.10s | KE 860.4022 | drift -0.42% | fluid 20.1011 | solid 840.3011
  Impulse FP iterations last/mean/max 8/7.16/8
Step   200/2000   10.0% | t 10.000 | ETA 2m 57s | step 0.11s | KE 857.5990 | drift -0.75% | fluid 16.1245 | solid 841.4746
  Impulse FP iterations last/mean/max 7/7.12/8
Step   300/2000   15.0% | t 15.000 | ETA 2m 49s | step 0.11s | KE 856.5386 | drift -0.87% | fluid 11.8301 | solid 844.7085
  Impulse FP iterations last/mean/max 7/7.12/8
Step   400/2000   20.0% | t 20.000 | ETA 2m 40s | step 0.10s | KE 856.1903 | drift -0.91% | fluid 11.9188 | solid 844.2715
  Impulse FP iterations last/mean/max 7/7.10/8
Step   500/2000   25.0% | t 25.000 | ETA 2m 30s | step 0.10s | KE 856.0408 | drift -0.93% | fluid 16.9693 | solid 839.0714
  Impulse FP iterations last/mean/max 7/7.11/8
Step   600/2000   30.0% | t 30.000 | ETA 2m 21s | step 0.10s | KE 856.0521 | drift -0.93% | fluid 14.8575 | solid 841.1947
  Impulse FP iterations last/mean/max 7/7.12/8
Step   700/2000   35.0% | t 35.000 | ETA 2m 11s | step 0.11s | KE 856.0688 | drift -0.93% | fluid 13.4759 | solid 842.5929
  Impulse FP iterations last/mean/max 7/7.11/8
Step   800/2000   40.0% | t 40.000 | ETA 2m 1s | step 0.09s | KE 856.0344 | drift -0.93% | fluid 15.1201 | solid 840.9143
  Impulse FP iterations last/mean/max 7/7.12/8
Step   900/2000   45.0% | t 45.000 | ETA 1m 51s | step 0.10s | KE 856.0939 | drift -0.92% | fluid 13.8125 | solid 842.2814
  Impulse FP iterations last/mean/max 7/7.12/8
Step  1000/2000   50.0% | t 50.000 | ETA 1m 41s | step 0.12s | KE 855.9856 | drift -0.94% | fluid 19.8430 | solid 836.1425
  Impulse FP iterations last/mean/max 8/7.12/8
Step  1100/2000   55.0% | t 55.000 | ETA 1m 31s | step 0.10s | KE 856.0860 | drift -0.92% | fluid 14.9931 | solid 841.0928
  Impulse FP iterations last/mean/max 7/7.12/8
Step  1200/2000   60.0% | t 60.000 | ETA 1m 21s | step 0.10s | KE 856.1034 | drift -0.92% | fluid 12.5595 | solid 843.5439
  Impulse FP iterations last/mean/max 7/7.12/8
Step  1300/2000   65.0% | t 65.000 | ETA 1m 10s | step 0.11s | KE 856.1252 | drift -0.92% | fluid 16.0112 | solid 840.1140
  Impulse FP iterations last/mean/max 7/7.12/8
Step  1400/2000   70.0% | t 70.000 | ETA 1m 0s | step 0.10s | KE 856.1049 | drift -0.92% | fluid 16.1509 | solid 839.9540
  Impulse FP iterations last/mean/max 7/7.12/8
Step  1500/2000   75.0% | t 75.000 | ETA 50s | step 0.10s | KE 856.1385 | drift -0.92% | fluid 12.4784 | solid 843.6601
  Impulse FP iterations last/mean/max 7/7.12/8
Step  1600/2000   80.0% | t 80.000 | ETA 40s | step 0.10s | KE 856.1394 | drift -0.92% | fluid 13.8003 | solid 842.3391
  Impulse FP iterations last/mean/max 7/7.12/8
Step  1700/2000   85.0% | t 85.000 | ETA 30s | step 0.11s | KE 856.1365 | drift -0.92% | fluid 15.2348 | solid 840.9017
  Impulse FP iterations last/mean/max 7/7.12/8
Step  1800/2000   90.0% | t 90.000 | ETA 20s | step 0.10s | KE 856.1660 | drift -0.91% | fluid 13.8320 | solid 842.3340
  Impulse FP iterations last/mean/max 7/7.13/8
Step  1900/2000   95.0% | t 95.000 | ETA 10s | step 0.10s | KE 856.1077 | drift -0.92% | fluid 15.6028 | solid 840.5049
  Impulse FP iterations last/mean/max 7/7.12/8
Solver finished successfully - good job!
Results saved successfully.

================== Run summary ==================
  Bodies:            2
  Triangles / nodes: 256 / 516
  Timesteps:         2000  (dt = 0.05)
  Simulated time:    0 -> 100
  First-step setup:  0.230 s
  Mean time/step:    0.1013 s  (excl. first step)
  Total wall time:   3m 22s
  Impulse FP iters last/mean/max: 7 / 7.125 / 8
  Approx impulse solves/step:     7.126
  Impulse start cache hits/direct: 1999 / 1
  Impulse global drift P/H:       5.069995e-9 / 1.074780e-2
  Impulse per-body max drift P/H: 5.978106e-9 / 8.453572e-3
  CPU cores:         256 available, 8 Rayon worker thread(s)
  Started:           2026-06-24 01:21:16
  Finished:          2026-06-24 01:24:39
  Output file:       /work/e643/e643/shared/multi_ellip/studies/two_body_paper_sweeps/runs/ellipsoid_1_0p8_0p6/ellipsoid_1_0p8_0p6_rho10_E4_sep3_run03_impulse_noproj/multiple_body_complete.dat
================================================
