
================ Simulation setup ================
  Run label:         /work/e643/e643/shared/multi_ellip/studies/two_body_paper_sweeps/runs/spheroid_1_0p7_0p7/spheroid_1_0p7_0p7_rho4_E11_sep3_run01_impulse_noproj/
  Started:           2026-06-22 19:30:32
  Input file:        /work/e643/e643/shared/multi_ellip/studies/two_body_paper_sweeps/runs/spheroid_1_0p7_0p7/spheroid_1_0p7_0p7_rho4_E11_sep3_run01_impulse_noproj/input.txt
  Output file:       /work/e643/e643/shared/multi_ellip/studies/two_body_paper_sweeps/runs/spheroid_1_0p7_0p7/spheroid_1_0p7_0p7_rho4_E11_sep3_run01_impulse_noproj/multiple_body_complete.dat
  Bodies:            2
  Fluid density:     1
  Mesh:              ndiv 2 -> 256 triangles / 516 nodes
  Simulated time:    0 -> 100  (dt = 0.05, ~2000 steps)
  Output cadence:    every 1 step(s)
  Output rows:       ~2001
  Progress cadence:  every 100 step(s)
  CPU cores:         256 available, 8 Rayon worker thread(s)
  Strong coupling:   disabled
  Impulse scheme:    enabled
  Hamiltonian step:  disabled
  Hamiltonian midpt: disabled
  Variational step:  disabled
  Energy projection: disabled
  Projection particular metric: Euclidean
  Fluid KE gradient: disabled  (eps = 0.001, scale = 1, linear = 1, angular = 1)
  Fluid KE discrete gradient: disabled
  Impulse pair metric correction: disabled  (mode = pair discrete-gradient, cutoff = all pairs, inner/outer = 0/0, eps = 0.001, linear scale = 1, angular scale = 0)
  Impulse metric correction: disabled  (internal load constraint = disabled)
  Impulse variational defect probe: disabled
  Impulse quadratic pressure: disabled  (scale = 1)
  Added-mass stab:   disabled
  Exact BEM geometry: disabled
  Exact singular BEM: disabled
  Legacy singular SLP diagnostic: disabled
  Phi-dot blend:     0 (off)

  Solver guidance:
    - Strong coupling: use for stiff close-coupled runs; slower but more implicit.
    - Impulse scheme: use when impulse/momentum conservation or KE drift is the focus. Recommended.
    - Added-mass stab: use for higher mesh counts (ndiv > 3) to preserve stability - deprecated.
================================================
Solver starting - good luck!

Initial state:
  Body  1
    density:          4.000000
    shape axes ratio: (1.000000, 0.700000, 0.700000)
    initial KE ratio: 11.000000
    position:         (-1.500000, 0.000000, 0.000000)
    velocity:         (0.939995, 0.747079, 0.523351)
    angular velocity: (-0.587159, 5.349592, 3.242765)
    orientation:      (w=0.447214, i=0.894427, j=0.000000, k=0.000000)
  Body  2
    density:          4.000000
    shape axes ratio: (1.000000, 0.700000, 0.700000)
    initial KE ratio: 11.000000
    position:         (1.500000, 0.000000, 0.000000)
    velocity:         (0.915420, 0.727547, 0.509669)
    angular velocity: (-2.505760, -5.757135, -0.234472)
    orientation:      (w=0.707107, i=0.000000, j=0.707107, k=0.000000)

Preparing first step: implicit scheme, no bootstrap passes required.
First step may take longer than later steps.

First step completed in 0.298 s.

Step   100/2000    5.0% | t 5.000 | ETA 3m 38s | step 0.12s | KE 351.7702 | drift -0.86% | fluid 10.1178 | solid 341.6524
  Impulse FP iterations last/mean/max 8/8.00/8
Step   200/2000   10.0% | t 10.000 | ETA 3m 26s | step 0.11s | KE 350.3505 | drift -1.26% | fluid 10.1396 | solid 340.2110
  Impulse FP iterations last/mean/max 8/7.99/8
Step   300/2000   15.0% | t 15.000 | ETA 3m 15s | step 0.11s | KE 349.8083 | drift -1.42% | fluid 10.6795 | solid 339.1287
  Impulse FP iterations last/mean/max 8/7.98/8
Step   400/2000   20.0% | t 20.000 | ETA 3m 2s | step 0.12s | KE 350.4730 | drift -1.23% | fluid 10.9464 | solid 339.5266
  Impulse FP iterations last/mean/max 8/7.91/8
Step   500/2000   25.0% | t 25.000 | ETA 2m 51s | step 0.10s | KE 351.4416 | drift -0.96% | fluid 10.2580 | solid 341.1836
  Impulse FP iterations last/mean/max 8/7.91/8
Step   600/2000   30.0% | t 30.000 | ETA 2m 39s | step 0.11s | KE 352.3520 | drift -0.70% | fluid 10.5481 | solid 341.8039
  Impulse FP iterations last/mean/max 8/7.90/8
Step   700/2000   35.0% | t 35.000 | ETA 2m 28s | step 0.11s | KE 353.2022 | drift -0.46% | fluid 10.7572 | solid 342.4450
  Impulse FP iterations last/mean/max 8/7.88/8
Step   800/2000   40.0% | t 40.000 | ETA 2m 16s | step 0.11s | KE 353.9537 | drift -0.25% | fluid 10.4773 | solid 343.4764
  Impulse FP iterations last/mean/max 8/7.86/8
Step   900/2000   45.0% | t 45.000 | ETA 2m 4s | step 0.10s | KE 354.5258 | drift -0.09% | fluid 10.8133 | solid 343.7125
  Impulse FP iterations last/mean/max 7/7.83/8
Step  1000/2000   50.0% | t 50.000 | ETA 1m 52s | step 0.12s | KE 354.9610 | drift +0.04% | fluid 10.3855 | solid 344.5754
  Impulse FP iterations last/mean/max 8/7.80/8
Step  1100/2000   55.0% | t 55.000 | ETA 1m 40s | step 0.10s | KE 355.2716 | drift +0.12% | fluid 10.7711 | solid 344.5005
  Impulse FP iterations last/mean/max 7/7.75/8
Step  1200/2000   60.0% | t 60.000 | ETA 1m 29s | step 0.10s | KE 355.5073 | drift +0.19% | fluid 10.4546 | solid 345.0527
  Impulse FP iterations last/mean/max 7/7.71/8
Step  1300/2000   65.0% | t 65.000 | ETA 1m 17s | step 0.10s | KE 355.6503 | drift +0.23% | fluid 10.8388 | solid 344.8115
  Impulse FP iterations last/mean/max 7/7.67/8
Step  1400/2000   70.0% | t 70.000 | ETA 1m 6s | step 0.10s | KE 355.7739 | drift +0.26% | fluid 10.3572 | solid 345.4167
  Impulse FP iterations last/mean/max 7/7.63/8
Step  1500/2000   75.0% | t 75.000 | ETA 54s | step 0.10s | KE 355.8256 | drift +0.28% | fluid 10.8172 | solid 345.0084
  Impulse FP iterations last/mean/max 7/7.59/8
Step  1600/2000   80.0% | t 80.000 | ETA 43s | step 0.10s | KE 355.8920 | drift +0.30% | fluid 10.4088 | solid 345.4832
  Impulse FP iterations last/mean/max 7/7.55/8
Step  1700/2000   85.0% | t 85.000 | ETA 32s | step 0.10s | KE 355.8946 | drift +0.30% | fluid 10.8743 | solid 345.0203
  Impulse FP iterations last/mean/max 7/7.52/8
Step  1800/2000   90.0% | t 90.000 | ETA 21s | step 0.10s | KE 355.9319 | drift +0.31% | fluid 10.3146 | solid 345.6174
  Impulse FP iterations last/mean/max 7/7.49/8
Step  1900/2000   95.0% | t 95.000 | ETA 10s | step 0.09s | KE 355.9116 | drift +0.30% | fluid 10.8610 | solid 345.0505
  Impulse FP iterations last/mean/max 7/7.46/8
Solver finished successfully - good job!
Results saved successfully.

================== Run summary ==================
  Bodies:            2
  Triangles / nodes: 256 / 516
  Timesteps:         2000  (dt = 0.05)
  Simulated time:    0 -> 100
  First-step setup:  0.298 s
  Mean time/step:    0.1060 s  (excl. first step)
  Total wall time:   3m 32s
  Impulse FP iters last/mean/max: 7 / 7.438 / 8
  Approx impulse solves/step:     7.438
  Impulse start cache hits/direct: 1999 / 1
  Impulse global drift P/H:       1.419813e-8 / 3.162261e-2
  Impulse per-body max drift P/H: 2.515062e-8 / 1.214955e-2
  CPU cores:         256 available, 8 Rayon worker thread(s)
  Started:           2026-06-22 19:30:32
  Finished:          2026-06-22 19:34:04
  Output file:       /work/e643/e643/shared/multi_ellip/studies/two_body_paper_sweeps/runs/spheroid_1_0p7_0p7/spheroid_1_0p7_0p7_rho4_E11_sep3_run01_impulse_noproj/multiple_body_complete.dat
================================================
