
================ Simulation setup ================
  Run label:         /work/e643/e643/shared/multi_ellip/studies/two_body_paper_sweeps/runs/spheroid_1_0p7_0p7/spheroid_1_0p7_0p7_rho10_E1p5_sep11_run01_impulse_noproj/
  Started:           2026-06-22 19:23:17
  Input file:        /work/e643/e643/shared/multi_ellip/studies/two_body_paper_sweeps/runs/spheroid_1_0p7_0p7/spheroid_1_0p7_0p7_rho10_E1p5_sep11_run01_impulse_noproj/input.txt
  Output file:       /work/e643/e643/shared/multi_ellip/studies/two_body_paper_sweeps/runs/spheroid_1_0p7_0p7/spheroid_1_0p7_0p7_rho10_E1p5_sep11_run01_impulse_noproj/multiple_body_complete.dat
  Bodies:            2
  Fluid density:     1
  Mesh:              ndiv 2 -> 256 triangles / 516 nodes
  Simulated time:    0 -> 100  (dt = 0.05, ~2000 steps)
  Output cadence:    every 1 step(s)
  Output rows:       ~2001
  Progress cadence:  every 100 step(s)
  CPU cores:         256 available, 8 Rayon worker thread(s)
  Strong coupling:   disabled
  Impulse scheme:    enabled
  Hamiltonian step:  disabled
  Hamiltonian midpt: disabled
  Variational step:  disabled
  Energy projection: disabled
  Projection particular metric: Euclidean
  Fluid KE gradient: disabled  (eps = 0.001, scale = 1, linear = 1, angular = 1)
  Fluid KE discrete gradient: disabled
  Impulse pair metric correction: disabled  (mode = pair discrete-gradient, cutoff = all pairs, inner/outer = 0/0, eps = 0.001, linear scale = 1, angular scale = 0)
  Impulse metric correction: disabled  (internal load constraint = disabled)
  Impulse variational defect probe: disabled
  Impulse quadratic pressure: disabled  (scale = 1)
  Added-mass stab:   disabled
  Exact BEM geometry: disabled
  Exact singular BEM: disabled
  Legacy singular SLP diagnostic: disabled
  Phi-dot blend:     0 (off)

  Solver guidance:
    - Strong coupling: use for stiff close-coupled runs; slower but more implicit.
    - Impulse scheme: use when impulse/momentum conservation or KE drift is the focus. Recommended.
    - Added-mass stab: use for higher mesh counts (ndiv > 3) to preserve stability - deprecated.
================================================
Solver starting - good luck!

Initial state:
  Body  1
    density:          10.000000
    shape axes ratio: (1.000000, 0.700000, 0.700000)
    initial KE ratio: 1.500000
    position:         (-5.500000, 0.000000, 0.000000)
    velocity:         (-3.293986, 1.281849, 0.312905)
    angular velocity: (-0.501220, 2.563215, -5.714641)
    orientation:      (w=0.447214, i=0.894427, j=0.000000, k=0.000000)
  Body  2
    density:          10.000000
    shape axes ratio: (1.000000, 0.700000, 0.700000)
    initial KE ratio: 1.500000
    position:         (5.500000, 0.000000, 0.000000)
    velocity:         (-3.297370, 1.283165, 0.313226)
    angular velocity: (-0.121056, -5.804191, 2.403150)
    orientation:      (w=0.707107, i=0.000000, j=0.707107, k=0.000000)

Preparing first step: implicit scheme, no bootstrap passes required.
First step may take longer than later steps.

First step completed in 6.994 s.

Step   100/2000    5.0% | t 5.000 | ETA 2m 45s | step 0.08s | KE 1333.6964 | drift -0.03% | fluid 26.7960 | solid 1306.9004
  Impulse FP iterations last/mean/max 6/6.34/8
Step   200/2000   10.0% | t 10.000 | ETA 2m 41s | step 0.10s | KE 1332.9879 | drift -0.08% | fluid 31.9589 | solid 1301.0290
  Impulse FP iterations last/mean/max 7/6.40/8
Step   300/2000   15.0% | t 15.000 | ETA 2m 32s | step 0.08s | KE 1332.5599 | drift -0.11% | fluid 30.9276 | solid 1301.6323
  Impulse FP iterations last/mean/max 6/6.36/8
Step   400/2000   20.0% | t 20.000 | ETA 2m 23s | step 0.08s | KE 1332.0436 | drift -0.15% | fluid 31.9400 | solid 1300.1036
  Impulse FP iterations last/mean/max 6/6.38/8
Step   500/2000   25.0% | t 25.000 | ETA 2m 15s | step 0.11s | KE 1331.4548 | drift -0.20% | fluid 34.5749 | solid 1296.8800
  Impulse FP iterations last/mean/max 8/6.38/8
Step   600/2000   30.0% | t 30.000 | ETA 2m 6s | step 0.09s | KE 1331.2468 | drift -0.21% | fluid 30.4888 | solid 1300.7580
  Impulse FP iterations last/mean/max 6/6.36/8
Step   700/2000   35.0% | t 35.000 | ETA 1m 57s | step 0.10s | KE 1330.7669 | drift -0.25% | fluid 38.7400 | solid 1292.0269
  Impulse FP iterations last/mean/max 7/6.38/8
Step   800/2000   40.0% | t 40.000 | ETA 1m 49s | step 0.09s | KE 1330.8387 | drift -0.24% | fluid 37.3327 | solid 1293.5060
  Impulse FP iterations last/mean/max 6/6.39/8
Step   900/2000   45.0% | t 45.000 | ETA 1m 40s | step 0.10s | KE 1331.3556 | drift -0.20% | fluid 30.6735 | solid 1300.6820
  Impulse FP iterations last/mean/max 6/6.40/8
Step  1000/2000   50.0% | t 50.000 | ETA 1m 31s | step 0.09s | KE 1331.8931 | drift -0.16% | fluid 31.0944 | solid 1300.7987
  Impulse FP iterations last/mean/max 6/6.40/8
Step  1100/2000   55.0% | t 55.000 | ETA 1m 22s | step 0.10s | KE 1332.7021 | drift -0.10% | fluid 37.0075 | solid 1295.6946
  Impulse FP iterations last/mean/max 7/6.39/8
Step  1200/2000   60.0% | t 60.000 | ETA 1m 13s | step 0.10s | KE 1334.6043 | drift +0.04% | fluid 37.7115 | solid 1296.8928
  Impulse FP iterations last/mean/max 7/6.41/8
Step  1300/2000   65.0% | t 65.000 | ETA 1m 4s | step 0.10s | KE 1338.0823 | drift +0.30% | fluid 30.9874 | solid 1307.0950
  Impulse FP iterations last/mean/max 7/6.43/8
Step  1400/2000   70.0% | t 70.000 | ETA 55s | step 0.11s | KE 1343.1602 | drift +0.68% | fluid 39.3718 | solid 1303.7883
  Impulse FP iterations last/mean/max 7/6.43/8
Step  1500/2000   75.0% | t 75.000 | ETA 46s | step 0.09s | KE 1352.7911 | drift +1.40% | fluid 30.5352 | solid 1322.2558
  Impulse FP iterations last/mean/max 6/6.46/8
Step  1600/2000   80.0% | t 80.000 | ETA 37s | step 0.10s | KE 1368.7735 | drift +2.60% | fluid 30.8886 | solid 1337.8848
  Impulse FP iterations last/mean/max 7/6.49/8
Step  1700/2000   85.0% | t 85.000 | ETA 28s | step 0.09s | KE 1399.5935 | drift +4.91% | fluid 29.1588 | solid 1370.4348
  Impulse FP iterations last/mean/max 7/6.52/8
Step  1800/2000   90.0% | t 90.000 | ETA 18s | step 0.10s | KE 1459.5356 | drift +9.41% | fluid 35.7547 | solid 1423.7809
  Impulse FP iterations last/mean/max 7/6.55/8
Step  1900/2000   95.0% | t 95.000 | ETA 9s | step 0.09s | KE 1601.7288 | drift +20.06% | fluid 26.4706 | solid 1575.2582
  Impulse FP iterations last/mean/max 7/6.59/30
Solver finished successfully - good job!
Results saved successfully.

================== Run summary ==================
  Bodies:            2
  Triangles / nodes: 256 / 516
  Timesteps:         2000  (dt = 0.05)
  Simulated time:    0 -> 100
  First-step setup:  6.994 s
  Mean time/step:    0.0953 s  (excl. first step)
  Total wall time:   3m 17s
  Impulse FP iters last/mean/max: 7 / 6.662 / 30
  Approx impulse solves/step:     6.663
  Impulse start cache hits/direct: 1999 / 1
  Impulse global drift P/H:       7.821588e-2 / 7.992105e1
  Impulse per-body max drift P/H: 1.280459e-1 / 1.052586e1
  CPU cores:         256 available, 8 Rayon worker thread(s)
  Started:           2026-06-22 19:23:17
  Finished:          2026-06-22 19:26:36
  Output file:       /work/e643/e643/shared/multi_ellip/studies/two_body_paper_sweeps/runs/spheroid_1_0p7_0p7/spheroid_1_0p7_0p7_rho10_E1p5_sep11_run01_impulse_noproj/multiple_body_complete.dat
================================================
