
================ Simulation setup ================
  Run label:         /work/e643/e643/shared/multi_ellip/studies/departing_sphericity_sweep/runs/spheroid_prolate/homogeneous/spheroid_prolate_homogeneous_eps0p003_rho1_E0p5_sep8_run05_impulse_noproj/
  Started:           2026-06-24 02:26:39
  Input file:        /work/e643/e643/shared/multi_ellip/studies/departing_sphericity_sweep/runs/spheroid_prolate/homogeneous/spheroid_prolate_homogeneous_eps0p003_rho1_E0p5_sep8_run05_impulse_noproj/input.txt
  Output file:       /work/e643/e643/shared/multi_ellip/studies/departing_sphericity_sweep/runs/spheroid_prolate/homogeneous/spheroid_prolate_homogeneous_eps0p003_rho1_E0p5_sep8_run05_impulse_noproj/multiple_body_complete.dat
  Bodies:            2
  Fluid density:     1
  Mesh:              ndiv 2 -> 256 triangles / 516 nodes
  Simulated time:    0 -> 100  (dt = 0.05, ~2000 steps)
  Output cadence:    every 1 step(s)
  Output rows:       ~2001
  Progress cadence:  every 100 step(s)
  CPU cores:         256 available, 8 Rayon worker thread(s)
  Strong coupling:   disabled
  Impulse scheme:    enabled
  Hamiltonian step:  disabled
  Hamiltonian midpt: disabled
  Variational step:  disabled
  Energy projection: disabled
  Projection particular metric: Euclidean
  Fluid KE gradient: disabled  (eps = 0.001, scale = 1, linear = 1, angular = 1)
  Fluid KE discrete gradient: disabled
  Impulse pair metric correction: disabled  (mode = pair discrete-gradient, cutoff = all pairs, inner/outer = 0/0, eps = 0.001, linear scale = 1, angular scale = 0)
  Impulse metric correction: disabled  (internal load constraint = disabled)
  Impulse variational defect probe: disabled
  Impulse quadratic pressure: disabled  (scale = 1)
  Added-mass stab:   disabled
  Exact BEM geometry: disabled
  Exact singular BEM: disabled
  Legacy singular SLP diagnostic: disabled
  Phi-dot blend:     0 (off)

  Solver guidance:
    - Strong coupling: use for stiff close-coupled runs; slower but more implicit.
    - Impulse scheme: use when impulse/momentum conservation or KE drift is the focus. Recommended.
    - Added-mass stab: use for higher mesh counts (ndiv > 3) to preserve stability - deprecated.
================================================
Solver starting - good luck!

Initial state:
  Body  1
    density:          1.000000
    shape axes ratio: (1.000000, 0.991054, 0.991054)
    initial KE ratio: 0.500000
    position:         (-4.000000, 0.000000, 0.000000)
    velocity:         (-5.082185, -1.142521, 2.119504)
    angular velocity: (-2.698307, -5.566837, -1.099034)
    orientation:      (w=0.350984, i=0.076892, j=-0.558629, k=0.747550)
  Body  2
    density:          1.000000
    shape axes ratio: (1.000000, 0.991054, 0.991054)
    initial KE ratio: 0.500000
    position:         (4.000000, 0.000000, 0.000000)
    velocity:         (-5.086136, -1.143409, 2.121152)
    angular velocity: (-0.677957, -3.336169, 5.280982)
    orientation:      (w=-0.225163, i=-0.070910, j=-0.619730, k=-0.748471)

Preparing first step: implicit scheme, no bootstrap passes required.
First step may take longer than later steps.

First step completed in 0.249 s.

Step   100/2000    5.0% | t 5.000 | ETA 3m 27s | step 0.11s | KE 279.8585 | drift +3.30% | fluid 72.1093 | solid 207.7492
  Impulse FP iterations last/mean/max 8/7.89/8
Step   200/2000   10.0% | t 10.000 | ETA 3m 18s | step 0.12s | KE 291.7517 | drift +7.69% | fluid 72.1407 | solid 219.6110
  Impulse FP iterations last/mean/max 8/7.89/8
Step   300/2000   15.0% | t 15.000 | ETA 3m 7s | step 0.10s | KE 306.5907 | drift +13.16% | fluid 72.0451 | solid 234.5456
  Impulse FP iterations last/mean/max 7/7.86/8
Step   400/2000   20.0% | t 20.000 | ETA 2m 55s | step 0.11s | KE 324.3099 | drift +19.70% | fluid 72.0137 | solid 252.2962
  Impulse FP iterations last/mean/max 8/7.83/8
Step   500/2000   25.0% | t 25.000 | ETA 2m 44s | step 0.11s | KE 344.9014 | drift +27.30% | fluid 72.0062 | solid 272.8951
  Impulse FP iterations last/mean/max 8/7.78/8
Step   600/2000   30.0% | t 30.000 | ETA 2m 32s | step 0.12s | KE 368.3055 | drift +35.94% | fluid 72.0886 | solid 296.2169
  Impulse FP iterations last/mean/max 8/7.74/8
Step   700/2000   35.0% | t 35.000 | ETA 2m 20s | step 0.10s | KE 394.6533 | drift +45.67% | fluid 71.9131 | solid 322.7403
  Impulse FP iterations last/mean/max 7/7.69/8
Step   800/2000   40.0% | t 40.000 | ETA 2m 9s | step 0.10s | KE 423.7904 | drift +56.42% | fluid 72.0823 | solid 351.7081
  Impulse FP iterations last/mean/max 7/7.65/8
Step   900/2000   45.0% | t 45.000 | ETA 1m 57s | step 0.08s | KE 455.9518 | drift +68.29% | fluid 72.0374 | solid 383.9144
  Impulse FP iterations last/mean/max 6/7.60/8
Step  1000/2000   50.0% | t 50.000 | ETA 1m 46s | step 0.08s | KE 491.1311 | drift +81.28% | fluid 72.0344 | solid 419.0967
  Impulse FP iterations last/mean/max 6/7.56/8
Step  1100/2000   55.0% | t 55.000 | ETA 1m 35s | step 0.10s | KE 529.3047 | drift +95.37% | fluid 72.0951 | solid 457.2096
  Impulse FP iterations last/mean/max 7/7.52/8
Step  1200/2000   60.0% | t 60.000 | ETA 1m 24s | step 0.11s | KE 570.6099 | drift +110.61% | fluid 72.1722 | solid 498.4377
  Impulse FP iterations last/mean/max 7/7.49/8
Step  1300/2000   65.0% | t 65.000 | ETA 1m 13s | step 0.09s | KE 615.1914 | drift +127.07% | fluid 72.0970 | solid 543.0944
  Impulse FP iterations last/mean/max 7/7.46/8
Step  1400/2000   70.0% | t 70.000 | ETA 1m 3s | step 0.10s | KE 663.0424 | drift +144.73% | fluid 72.0866 | solid 590.9557
  Impulse FP iterations last/mean/max 7/7.43/8
Step  1500/2000   75.0% | t 75.000 | ETA 52s | step 0.09s | KE 714.1843 | drift +163.61% | fluid 72.0975 | solid 642.0868
  Impulse FP iterations last/mean/max 7/7.41/8
Step  1600/2000   80.0% | t 80.000 | ETA 41s | step 0.09s | KE 768.7978 | drift +183.77% | fluid 71.9795 | solid 696.8183
  Impulse FP iterations last/mean/max 7/7.38/8
Step  1700/2000   85.0% | t 85.000 | ETA 31s | step 0.09s | KE 826.6666 | drift +205.13% | fluid 72.1041 | solid 754.5625
  Impulse FP iterations last/mean/max 7/7.36/8
Step  1800/2000   90.0% | t 90.000 | ETA 20s | step 0.08s | KE 888.2170 | drift +227.85% | fluid 71.9883 | solid 816.2286
  Impulse FP iterations last/mean/max 6/7.34/8
Step  1900/2000   95.0% | t 95.000 | ETA 10s | step 0.11s | KE 953.0797 | drift +251.79% | fluid 72.0445 | solid 881.0352
  Impulse FP iterations last/mean/max 8/7.32/8
Solver finished successfully - good job!
Results saved successfully.

================== Run summary ==================
  Bodies:            2
  Triangles / nodes: 256 / 516
  Timesteps:         2000  (dt = 0.05)
  Simulated time:    0 -> 100
  First-step setup:  0.249 s
  Mean time/step:    0.1015 s  (excl. first step)
  Total wall time:   3m 23s
  Impulse FP iters last/mean/max: 7 / 7.295 / 8
  Approx impulse solves/step:     7.295
  Impulse start cache hits/direct: 1999 / 1
  Impulse global drift P/H:       2.405179e-8 / 5.500034e-2
  Impulse per-body max drift P/H: 2.707139e-8 / 1.106899e-2
  CPU cores:         256 available, 8 Rayon worker thread(s)
  Started:           2026-06-24 02:26:39
  Finished:          2026-06-24 02:30:02
  Output file:       /work/e643/e643/shared/multi_ellip/studies/departing_sphericity_sweep/runs/spheroid_prolate/homogeneous/spheroid_prolate_homogeneous_eps0p003_rho1_E0p5_sep8_run05_impulse_noproj/multiple_body_complete.dat
================================================
