
================ Simulation setup ================
  Run label:         /work/e643/e643/shared/multi_ellip/studies/departing_sphericity_sweep/runs/triaxial/heterogeneous_sphere/triaxial_heterogeneous_sphere_eps0p01_rho1_E0p5_sep8_run05_impulse_noproj/
  Started:           2026-06-24 02:43:22
  Input file:        /work/e643/e643/shared/multi_ellip/studies/departing_sphericity_sweep/runs/triaxial/heterogeneous_sphere/triaxial_heterogeneous_sphere_eps0p01_rho1_E0p5_sep8_run05_impulse_noproj/input.txt
  Output file:       /work/e643/e643/shared/multi_ellip/studies/departing_sphericity_sweep/runs/triaxial/heterogeneous_sphere/triaxial_heterogeneous_sphere_eps0p01_rho1_E0p5_sep8_run05_impulse_noproj/multiple_body_complete.dat
  Bodies:            2
  Fluid density:     1
  Mesh:              ndiv 2 -> 256 triangles / 516 nodes
  Simulated time:    0 -> 100  (dt = 0.05, ~2000 steps)
  Output cadence:    every 1 step(s)
  Output rows:       ~2001
  Progress cadence:  every 100 step(s)
  CPU cores:         256 available, 8 Rayon worker thread(s)
  Strong coupling:   disabled
  Impulse scheme:    enabled
  Hamiltonian step:  disabled
  Hamiltonian midpt: disabled
  Variational step:  disabled
  Energy projection: disabled
  Projection particular metric: Euclidean
  Fluid KE gradient: disabled  (eps = 0.001, scale = 1, linear = 1, angular = 1)
  Fluid KE discrete gradient: disabled
  Impulse pair metric correction: disabled  (mode = pair discrete-gradient, cutoff = all pairs, inner/outer = 0/0, eps = 0.001, linear scale = 1, angular scale = 0)
  Impulse metric correction: disabled  (internal load constraint = disabled)
  Impulse variational defect probe: disabled
  Impulse quadratic pressure: disabled  (scale = 1)
  Added-mass stab:   disabled
  Exact BEM geometry: disabled
  Exact singular BEM: disabled
  Legacy singular SLP diagnostic: disabled
  Phi-dot blend:     0 (off)

  Solver guidance:
    - Strong coupling: use for stiff close-coupled runs; slower but more implicit.
    - Impulse scheme: use when impulse/momentum conservation or KE drift is the focus. Recommended.
    - Added-mass stab: use for higher mesh counts (ndiv > 3) to preserve stability - deprecated.
================================================
Solver starting - good luck!

Initial state:
  Body  1
    density:          1.000000
    shape axes ratio: (1.000000, 0.990099, 0.980296)
    initial KE ratio: 0.500000
    position:         (-4.000000, 0.000000, 0.000000)
    velocity:         (-2.339380, 5.067752, 0.660027)
    angular velocity: (3.729681, -3.345540, 3.791472)
    orientation:      (w=0.110524, i=-0.014790, j=-0.758988, k=0.641485)
  Body  2
    density:          1.000000
    shape axes ratio: (1.000000, 1.000000, 1.000000)
    initial KE ratio: 0.500000
    position:         (4.000000, 0.000000, 0.000000)
    velocity:         (-2.339095, 5.067133, 0.659946)
    angular velocity: (5.667537, -2.600214, -0.772226)
    orientation:      (w=-0.329931, i=0.737849, j=-0.324760, k=-0.491178)

Preparing first step: implicit scheme, no bootstrap passes required.
First step may take longer than later steps.

First step completed in 0.307 s.

Step   100/2000    5.0% | t 5.000 | ETA 3m 24s | step 0.11s | KE 277.1221 | drift +2.21% | fluid 72.7761 | solid 204.3460
  Impulse FP iterations last/mean/max 7/7.62/8
Step   200/2000   10.0% | t 10.000 | ETA 3m 13s | step 0.10s | KE 285.9945 | drift +5.48% | fluid 72.4890 | solid 213.5054
  Impulse FP iterations last/mean/max 7/7.63/8
Step   300/2000   15.0% | t 15.000 | ETA 3m 2s | step 0.11s | KE 298.0710 | drift +9.94% | fluid 72.7669 | solid 225.3041
  Impulse FP iterations last/mean/max 8/7.60/8
Step   400/2000   20.0% | t 20.000 | ETA 2m 51s | step 0.11s | KE 314.0403 | drift +15.83% | fluid 72.5571 | solid 241.4832
  Impulse FP iterations last/mean/max 8/7.55/8
Step   500/2000   25.0% | t 25.000 | ETA 2m 41s | step 0.11s | KE 334.3983 | drift +23.34% | fluid 72.8388 | solid 261.5596
  Impulse FP iterations last/mean/max 8/7.54/8
Step   600/2000   30.0% | t 30.000 | ETA 2m 30s | step 0.11s | KE 360.0635 | drift +32.80% | fluid 72.5537 | solid 287.5099
  Impulse FP iterations last/mean/max 7/7.53/8
Step   700/2000   35.0% | t 35.000 | ETA 2m 19s | step 0.11s | KE 391.7909 | drift +44.51% | fluid 72.5603 | solid 319.2306
  Impulse FP iterations last/mean/max 8/7.55/8
Step   800/2000   40.0% | t 40.000 | ETA 2m 8s | step 0.09s | KE 430.7083 | drift +58.86% | fluid 72.5162 | solid 358.1920
  Impulse FP iterations last/mean/max 7/7.53/8
Step   900/2000   45.0% | t 45.000 | ETA 1m 57s | step 0.10s | KE 477.8941 | drift +76.26% | fluid 72.5069 | solid 405.3872
  Impulse FP iterations last/mean/max 7/7.48/8
Step  1000/2000   50.0% | t 50.000 | ETA 1m 46s | step 0.10s | KE 534.5555 | drift +97.16% | fluid 72.5998 | solid 461.9557
  Impulse FP iterations last/mean/max 7/7.45/8
Step  1100/2000   55.0% | t 55.000 | ETA 1m 35s | step 0.10s | KE 602.1409 | drift +122.09% | fluid 72.7439 | solid 529.3970
  Impulse FP iterations last/mean/max 7/7.42/8
Step  1200/2000   60.0% | t 60.000 | ETA 1m 24s | step 0.12s | KE 682.4404 | drift +151.71% | fluid 72.7332 | solid 609.7072
  Impulse FP iterations last/mean/max 8/7.41/8
Step  1300/2000   65.0% | t 65.000 | ETA 1m 13s | step 0.10s | KE 776.8682 | drift +186.54% | fluid 72.7233 | solid 704.1449
  Impulse FP iterations last/mean/max 7/7.39/8
Step  1400/2000   70.0% | t 70.000 | ETA 1m 2s | step 0.10s | KE 887.1699 | drift +227.22% | fluid 72.8316 | solid 814.3383
  Impulse FP iterations last/mean/max 7/7.36/8
Step  1500/2000   75.0% | t 75.000 | ETA 51s | step 0.09s | KE 1015.5990 | drift +274.59% | fluid 72.7890 | solid 942.8100
  Impulse FP iterations last/mean/max 7/7.35/8
Step  1600/2000   80.0% | t 80.000 | ETA 41s | step 0.10s | KE 1164.1594 | drift +329.38% | fluid 72.6327 | solid 1091.5268
  Impulse FP iterations last/mean/max 7/7.34/8
Step  1700/2000   85.0% | t 85.000 | ETA 30s | step 0.11s | KE 1333.8771 | drift +391.98% | fluid 72.7298 | solid 1261.1474
  Impulse FP iterations last/mean/max 8/7.34/8
Step  1800/2000   90.0% | t 90.000 | ETA 20s | step 0.10s | KE 1527.5598 | drift +463.42% | fluid 72.6595 | solid 1454.9004
  Impulse FP iterations last/mean/max 7/7.34/8
Step  1900/2000   95.0% | t 95.000 | ETA 10s | step 0.09s | KE 1746.3222 | drift +544.11% | fluid 72.8650 | solid 1673.4572
  Impulse FP iterations last/mean/max 7/7.35/8
Solver finished successfully - good job!
Results saved successfully.

================== Run summary ==================
  Bodies:            2
  Triangles / nodes: 256 / 516
  Timesteps:         2000  (dt = 0.05)
  Simulated time:    0 -> 100
  First-step setup:  0.307 s
  Mean time/step:    0.1025 s  (excl. first step)
  Total wall time:   3m 25s
  Impulse FP iters last/mean/max: 7 / 7.369 / 8
  Approx impulse solves/step:     7.369
  Impulse start cache hits/direct: 1999 / 1
  Impulse global drift P/H:       2.495978e-8 / 1.662820e-1
  Impulse per-body max drift P/H: 7.475326e-8 / 1.333100e-2
  CPU cores:         256 available, 8 Rayon worker thread(s)
  Started:           2026-06-24 02:43:22
  Finished:          2026-06-24 02:46:48
  Output file:       /work/e643/e643/shared/multi_ellip/studies/departing_sphericity_sweep/runs/triaxial/heterogeneous_sphere/triaxial_heterogeneous_sphere_eps0p01_rho1_E0p5_sep8_run05_impulse_noproj/multiple_body_complete.dat
================================================
