
================ Simulation setup ================
  Run label:         /work/e643/e643/shared/multi_ellip/studies/two_body_paper_sweeps/runs/spheroid_1_0p7_0p7/spheroid_1_0p7_0p7_rho0p3_E1p5_sep8_run05_impulse_noproj/
  Started:           2026-06-24 01:46:06
  Input file:        /work/e643/e643/shared/multi_ellip/studies/two_body_paper_sweeps/runs/spheroid_1_0p7_0p7/spheroid_1_0p7_0p7_rho0p3_E1p5_sep8_run05_impulse_noproj/input.txt
  Output file:       /work/e643/e643/shared/multi_ellip/studies/two_body_paper_sweeps/runs/spheroid_1_0p7_0p7/spheroid_1_0p7_0p7_rho0p3_E1p5_sep8_run05_impulse_noproj/multiple_body_complete.dat
  Bodies:            2
  Fluid density:     1
  Mesh:              ndiv 2 -> 256 triangles / 516 nodes
  Simulated time:    0 -> 100  (dt = 0.05, ~2000 steps)
  Output cadence:    every 1 step(s)
  Output rows:       ~2001
  Progress cadence:  every 100 step(s)
  CPU cores:         256 available, 8 Rayon worker thread(s)
  Strong coupling:   disabled
  Impulse scheme:    enabled
  Hamiltonian step:  disabled
  Hamiltonian midpt: disabled
  Variational step:  disabled
  Energy projection: disabled
  Projection particular metric: Euclidean
  Fluid KE gradient: disabled  (eps = 0.001, scale = 1, linear = 1, angular = 1)
  Fluid KE discrete gradient: disabled
  Impulse pair metric correction: disabled  (mode = pair discrete-gradient, cutoff = all pairs, inner/outer = 0/0, eps = 0.001, linear scale = 1, angular scale = 0)
  Impulse metric correction: disabled  (internal load constraint = disabled)
  Impulse variational defect probe: disabled
  Impulse quadratic pressure: disabled  (scale = 1)
  Added-mass stab:   disabled
  Exact BEM geometry: disabled
  Exact singular BEM: disabled
  Legacy singular SLP diagnostic: disabled
  Phi-dot blend:     0 (off)

  Solver guidance:
    - Strong coupling: use for stiff close-coupled runs; slower but more implicit.
    - Impulse scheme: use when impulse/momentum conservation or KE drift is the focus. Recommended.
    - Added-mass stab: use for higher mesh counts (ndiv > 3) to preserve stability - deprecated.
================================================
Solver starting - good luck!

Initial state:
  Body  1
    density:          0.300000
    shape axes ratio: (1.000000, 0.700000, 0.700000)
    initial KE ratio: 1.500000
    position:         (-4.000000, 0.000000, 0.000000)
    velocity:         (-2.688620, 1.020315, -2.032082)
    angular velocity: (1.417395, -2.311252, -5.668115)
    orientation:      (w=0.715561, i=-0.266172, j=-0.601757, k=0.234548)
  Body  2
    density:          0.300000
    shape axes ratio: (1.000000, 0.700000, 0.700000)
    initial KE ratio: 1.500000
    position:         (4.000000, 0.000000, 0.000000)
    velocity:         (-2.582684, 0.980113, -1.952015)
    angular velocity: (3.280828, -1.652394, -5.097468)
    orientation:      (w=-0.456061, i=0.346785, j=0.787619, k=-0.226726)

Preparing first step: implicit scheme, no bootstrap passes required.
First step may take longer than later steps.

First step completed in 0.359 s.

Step   100/2000    5.0% | t 5.000 | ETA 5m 23s | step 0.17s | KE 60.7228 | drift -8.76% | fluid 33.4543 | solid 27.2685
  Impulse FP iterations last/mean/max 12/11.97/13
Step   200/2000   10.0% | t 10.000 | ETA 5m 6s | step 0.18s | KE 59.4318 | drift -10.70% | fluid 33.3980 | solid 26.0338
  Impulse FP iterations last/mean/max 12/11.96/13
Step   300/2000   15.0% | t 15.000 | ETA 4m 48s | step 0.17s | KE 60.0844 | drift -9.72% | fluid 33.4367 | solid 26.6477
  Impulse FP iterations last/mean/max 12/11.92/13
Step   400/2000   20.0% | t 20.000 | ETA 4m 31s | step 0.17s | KE 60.0310 | drift -9.80% | fluid 33.3926 | solid 26.6384
  Impulse FP iterations last/mean/max 12/11.91/13
Step   500/2000   25.0% | t 25.000 | ETA 4m 14s | step 0.17s | KE 60.1789 | drift -9.58% | fluid 33.4597 | solid 26.7192
  Impulse FP iterations last/mean/max 12/11.90/13
Step   600/2000   30.0% | t 30.000 | ETA 3m 57s | step 0.19s | KE 60.2806 | drift -9.43% | fluid 33.4453 | solid 26.8353
  Impulse FP iterations last/mean/max 12/11.89/13
Step   700/2000   35.0% | t 35.000 | ETA 3m 40s | step 0.18s | KE 60.2042 | drift -9.54% | fluid 33.4446 | solid 26.7596
  Impulse FP iterations last/mean/max 12/11.88/13
Step   800/2000   40.0% | t 40.000 | ETA 3m 23s | step 0.14s | KE 60.0818 | drift -9.73% | fluid 33.3806 | solid 26.7011
  Impulse FP iterations last/mean/max 11/11.88/13
Step   900/2000   45.0% | t 45.000 | ETA 3m 6s | step 0.17s | KE 60.1893 | drift -9.57% | fluid 33.4653 | solid 26.7240
  Impulse FP iterations last/mean/max 12/11.87/13
Step  1000/2000   50.0% | t 50.000 | ETA 2m 49s | step 0.18s | KE 60.2196 | drift -9.52% | fluid 33.4553 | solid 26.7643
  Impulse FP iterations last/mean/max 12/11.86/13
Step  1100/2000   55.0% | t 55.000 | ETA 2m 32s | step 0.18s | KE 60.1653 | drift -9.60% | fluid 33.4366 | solid 26.7286
  Impulse FP iterations last/mean/max 12/11.86/13
Step  1200/2000   60.0% | t 60.000 | ETA 2m 15s | step 0.17s | KE 60.1646 | drift -9.60% | fluid 33.4194 | solid 26.7452
  Impulse FP iterations last/mean/max 12/11.86/13
Step  1300/2000   65.0% | t 65.000 | ETA 1m 58s | step 0.18s | KE 60.1715 | drift -9.59% | fluid 33.4083 | solid 26.7632
  Impulse FP iterations last/mean/max 12/11.86/13
Step  1400/2000   70.0% | t 70.000 | ETA 1m 41s | step 0.18s | KE 60.2024 | drift -9.55% | fluid 33.5005 | solid 26.7019
  Impulse FP iterations last/mean/max 12/11.85/13
Step  1500/2000   75.0% | t 75.000 | ETA 1m 24s | step 0.16s | KE 60.1588 | drift -9.61% | fluid 33.4003 | solid 26.7585
  Impulse FP iterations last/mean/max 12/11.85/13
Step  1600/2000   80.0% | t 80.000 | ETA 1m 7s | step 0.16s | KE 60.1700 | drift -9.59% | fluid 33.4257 | solid 26.7443
  Impulse FP iterations last/mean/max 12/11.85/13
Step  1700/2000   85.0% | t 85.000 | ETA 50s | step 0.18s | KE 60.1592 | drift -9.61% | fluid 33.4272 | solid 26.7320
  Impulse FP iterations last/mean/max 12/11.85/13
Step  1800/2000   90.0% | t 90.000 | ETA 33s | step 0.16s | KE 60.2192 | drift -9.52% | fluid 33.4699 | solid 26.7493
  Impulse FP iterations last/mean/max 11/11.85/13
Step  1900/2000   95.0% | t 95.000 | ETA 16s | step 0.18s | KE 60.1848 | drift -9.57% | fluid 33.4489 | solid 26.7359
  Impulse FP iterations last/mean/max 12/11.84/13
Solver finished successfully - good job!
Results saved successfully.

================== Run summary ==================
  Bodies:            2
  Triangles / nodes: 256 / 516
  Timesteps:         2000  (dt = 0.05)
  Simulated time:    0 -> 100
  First-step setup:  0.359 s
  Mean time/step:    0.1688 s  (excl. first step)
  Total wall time:   5m 37s
  Impulse FP iters last/mean/max: 12 / 11.844 / 13
  Approx impulse solves/step:     11.844
  Impulse start cache hits/direct: 1999 / 1
  Impulse global drift P/H:       5.867511e-8 / 6.186425e-3
  Impulse per-body max drift P/H: 6.635539e-8 / 1.432141e-3
  CPU cores:         256 available, 8 Rayon worker thread(s)
  Started:           2026-06-24 01:46:06
  Finished:          2026-06-24 01:51:44
  Output file:       /work/e643/e643/shared/multi_ellip/studies/two_body_paper_sweeps/runs/spheroid_1_0p7_0p7/spheroid_1_0p7_0p7_rho0p3_E1p5_sep8_run05_impulse_noproj/multiple_body_complete.dat
================================================
