
================ Simulation setup ================
  Run label:         /work/e643/e643/shared/multi_ellip/studies/two_body_paper_sweeps/runs/spheroid_1_0p7_0p7/spheroid_1_0p7_0p7_rho10_E1p5_sep8_run05_impulse_noproj/
  Started:           2026-06-24 01:18:34
  Input file:        /work/e643/e643/shared/multi_ellip/studies/two_body_paper_sweeps/runs/spheroid_1_0p7_0p7/spheroid_1_0p7_0p7_rho10_E1p5_sep8_run05_impulse_noproj/input.txt
  Output file:       /work/e643/e643/shared/multi_ellip/studies/two_body_paper_sweeps/runs/spheroid_1_0p7_0p7/spheroid_1_0p7_0p7_rho10_E1p5_sep8_run05_impulse_noproj/multiple_body_complete.dat
  Bodies:            2
  Fluid density:     1
  Mesh:              ndiv 2 -> 256 triangles / 516 nodes
  Simulated time:    0 -> 100  (dt = 0.05, ~2000 steps)
  Output cadence:    every 1 step(s)
  Output rows:       ~2001
  Progress cadence:  every 100 step(s)
  CPU cores:         256 available, 8 Rayon worker thread(s)
  Strong coupling:   disabled
  Impulse scheme:    enabled
  Hamiltonian step:  disabled
  Hamiltonian midpt: disabled
  Variational step:  disabled
  Energy projection: disabled
  Projection particular metric: Euclidean
  Fluid KE gradient: disabled  (eps = 0.001, scale = 1, linear = 1, angular = 1)
  Fluid KE discrete gradient: disabled
  Impulse pair metric correction: disabled  (mode = pair discrete-gradient, cutoff = all pairs, inner/outer = 0/0, eps = 0.001, linear scale = 1, angular scale = 0)
  Impulse metric correction: disabled  (internal load constraint = disabled)
  Impulse variational defect probe: disabled
  Impulse quadratic pressure: disabled  (scale = 1)
  Added-mass stab:   disabled
  Exact BEM geometry: disabled
  Exact singular BEM: disabled
  Legacy singular SLP diagnostic: disabled
  Phi-dot blend:     0 (off)

  Solver guidance:
    - Strong coupling: use for stiff close-coupled runs; slower but more implicit.
    - Impulse scheme: use when impulse/momentum conservation or KE drift is the focus. Recommended.
    - Added-mass stab: use for higher mesh counts (ndiv > 3) to preserve stability - deprecated.
================================================
Solver starting - good luck!

Initial state:
  Body  1
    density:          10.000000
    shape axes ratio: (1.000000, 0.700000, 0.700000)
    initial KE ratio: 1.500000
    position:         (-4.000000, 0.000000, 0.000000)
    velocity:         (3.014583, 1.571210, 0.613019)
    angular velocity: (-2.505259, 4.962305, -2.928759)
    orientation:      (w=-0.667498, i=0.412055, j=0.022768, k=-0.619789)
  Body  2
    density:          10.000000
    shape axes ratio: (1.000000, 0.700000, 0.700000)
    initial KE ratio: 1.500000
    position:         (4.000000, 0.000000, 0.000000)
    velocity:         (2.944635, 1.534753, 0.598795)
    angular velocity: (3.358389, -5.228185, 0.930441)
    orientation:      (w=0.191577, i=-0.894033, j=0.021156, k=0.404420)

Preparing first step: implicit scheme, no bootstrap passes required.
First step may take longer than later steps.

First step completed in 0.207 s.

Step   100/2000    5.0% | t 5.000 | ETA 2m 16s | step 0.09s | KE 1224.4958 | drift +0.04% | fluid 34.1612 | solid 1190.3347
  Impulse FP iterations last/mean/max 7/6.64/7
Step   200/2000   10.0% | t 10.000 | ETA 2m 20s | step 0.09s | KE 1225.1946 | drift +0.10% | fluid 34.3445 | solid 1190.8500
  Impulse FP iterations last/mean/max 7/6.67/8
Step   300/2000   15.0% | t 15.000 | ETA 2m 20s | step 0.10s | KE 1226.1297 | drift +0.18% | fluid 32.4122 | solid 1193.7175
  Impulse FP iterations last/mean/max 7/6.67/8
Step   400/2000   20.0% | t 20.000 | ETA 2m 17s | step 0.09s | KE 1227.2826 | drift +0.27% | fluid 29.7059 | solid 1197.5767
  Impulse FP iterations last/mean/max 6/6.68/8
Step   500/2000   25.0% | t 25.000 | ETA 2m 11s | step 0.09s | KE 1228.5310 | drift +0.37% | fluid 30.5679 | solid 1197.9630
  Impulse FP iterations last/mean/max 6/6.69/8
Step   600/2000   30.0% | t 30.000 | ETA 2m 4s | step 0.11s | KE 1230.0563 | drift +0.50% | fluid 32.8141 | solid 1197.2422
  Impulse FP iterations last/mean/max 7/6.68/8
Step   700/2000   35.0% | t 35.000 | ETA 1m 56s | step 0.10s | KE 1232.3665 | drift +0.69% | fluid 25.7993 | solid 1206.5672
  Impulse FP iterations last/mean/max 7/6.68/8
Step   800/2000   40.0% | t 40.000 | ETA 1m 49s | step 0.10s | KE 1234.6377 | drift +0.87% | fluid 31.8118 | solid 1202.8260
  Impulse FP iterations last/mean/max 7/6.69/8
Step   900/2000   45.0% | t 45.000 | ETA 1m 40s | step 0.10s | KE 1238.0819 | drift +1.15% | fluid 29.0752 | solid 1209.0067
  Impulse FP iterations last/mean/max 7/6.70/8
Step  1000/2000   50.0% | t 50.000 | ETA 1m 32s | step 0.10s | KE 1241.9793 | drift +1.47% | fluid 31.6028 | solid 1210.3765
  Impulse FP iterations last/mean/max 7/6.71/8
Step  1100/2000   55.0% | t 55.000 | ETA 1m 23s | step 0.10s | KE 1246.8775 | drift +1.87% | fluid 33.4101 | solid 1213.4674
  Impulse FP iterations last/mean/max 7/6.72/8
Step  1200/2000   60.0% | t 60.000 | ETA 1m 14s | step 0.10s | KE 1253.0923 | drift +2.38% | fluid 29.3533 | solid 1223.7391
  Impulse FP iterations last/mean/max 7/6.74/8
Step  1300/2000   65.0% | t 65.000 | ETA 1m 5s | step 0.10s | KE 1260.1222 | drift +2.95% | fluid 27.9765 | solid 1232.1456
  Impulse FP iterations last/mean/max 7/6.75/8
Step  1400/2000   70.0% | t 70.000 | ETA 56s | step 0.10s | KE 1266.4289 | drift +3.47% | fluid 29.9489 | solid 1236.4800
  Impulse FP iterations last/mean/max 7/6.77/8
Step  1500/2000   75.0% | t 75.000 | ETA 47s | step 0.10s | KE 1270.3570 | drift +3.79% | fluid 24.8238 | solid 1245.5332
  Impulse FP iterations last/mean/max 7/6.78/8
Step  1600/2000   80.0% | t 80.000 | ETA 38s | step 0.11s | KE 1268.8953 | drift +3.67% | fluid 21.0168 | solid 1247.8785
  Impulse FP iterations last/mean/max 7/6.79/8
Step  1700/2000   85.0% | t 85.000 | ETA 28s | step 0.12s | KE 1300.2995 | drift +6.24% | fluid 25.0534 | solid 1275.2461
  Impulse FP iterations last/mean/max 7/6.81/9
Step  1800/2000   90.0% | t 90.000 | ETA 19s | step 0.11s | KE 1465.0739 | drift +19.70% | fluid 33.6174 | solid 1431.4565
  Impulse FP iterations last/mean/max 7/6.87/30
Step  1900/2000   95.0% | t 95.000 | ETA 10s | step 0.09s | KE 1659.4826 | drift +35.58% | fluid 32.2323 | solid 1627.2502
  Impulse FP iterations last/mean/max 7/6.98/30
Solver finished successfully - good job!
Results saved successfully.

================== Run summary ==================
  Bodies:            2
  Triangles / nodes: 256 / 516
  Timesteps:         2000  (dt = 0.05)
  Simulated time:    0 -> 100
  First-step setup:  0.207 s
  Mean time/step:    0.0994 s  (excl. first step)
  Total wall time:   3m 18s
  Impulse FP iters last/mean/max: 7 / 7.002 / 30
  Approx impulse solves/step:     7.002
  Impulse start cache hits/direct: 1999 / 1
  Impulse global drift P/H:       9.284632e-2 / 2.240333e2
  Impulse per-body max drift P/H: 1.419491e-1 / 1.815980e1
  CPU cores:         256 available, 8 Rayon worker thread(s)
  Started:           2026-06-24 01:18:34
  Finished:          2026-06-24 01:21:53
  Output file:       /work/e643/e643/shared/multi_ellip/studies/two_body_paper_sweeps/runs/spheroid_1_0p7_0p7/spheroid_1_0p7_0p7_rho10_E1p5_sep8_run05_impulse_noproj/multiple_body_complete.dat
================================================
