
================ Simulation setup ================
  Run label:         /work/e643/e643/shared/multi_ellip/studies/departing_sphericity_sweep/runs/triaxial/heterogeneous_sphere/triaxial_heterogeneous_sphere_eps0_rho1_E0p5_sep8_run01_impulse_noproj/
  Started:           2026-06-24 02:37:13
  Input file:        /work/e643/e643/shared/multi_ellip/studies/departing_sphericity_sweep/runs/triaxial/heterogeneous_sphere/triaxial_heterogeneous_sphere_eps0_rho1_E0p5_sep8_run01_impulse_noproj/input.txt
  Output file:       /work/e643/e643/shared/multi_ellip/studies/departing_sphericity_sweep/runs/triaxial/heterogeneous_sphere/triaxial_heterogeneous_sphere_eps0_rho1_E0p5_sep8_run01_impulse_noproj/multiple_body_complete.dat
  Bodies:            2
  Fluid density:     1
  Mesh:              ndiv 2 -> 256 triangles / 516 nodes
  Simulated time:    0 -> 100  (dt = 0.05, ~2000 steps)
  Output cadence:    every 1 step(s)
  Output rows:       ~2001
  Progress cadence:  every 100 step(s)
  CPU cores:         256 available, 8 Rayon worker thread(s)
  Strong coupling:   disabled
  Impulse scheme:    enabled
  Hamiltonian step:  disabled
  Hamiltonian midpt: disabled
  Variational step:  disabled
  Energy projection: disabled
  Projection particular metric: Euclidean
  Fluid KE gradient: disabled  (eps = 0.001, scale = 1, linear = 1, angular = 1)
  Fluid KE discrete gradient: disabled
  Impulse pair metric correction: disabled  (mode = pair discrete-gradient, cutoff = all pairs, inner/outer = 0/0, eps = 0.001, linear scale = 1, angular scale = 0)
  Impulse metric correction: disabled  (internal load constraint = disabled)
  Impulse variational defect probe: disabled
  Impulse quadratic pressure: disabled  (scale = 1)
  Added-mass stab:   disabled
  Exact BEM geometry: disabled
  Exact singular BEM: disabled
  Legacy singular SLP diagnostic: disabled
  Phi-dot blend:     0 (off)

  Solver guidance:
    - Strong coupling: use for stiff close-coupled runs; slower but more implicit.
    - Impulse scheme: use when impulse/momentum conservation or KE drift is the focus. Recommended.
    - Added-mass stab: use for higher mesh counts (ndiv > 3) to preserve stability - deprecated.
================================================
Solver starting - good luck!

Initial state:
  Body  1
    density:          1.000000
    shape axes ratio: (1.000000, 1.000000, 1.000000)
    initial KE ratio: 0.500000
    position:         (-4.000000, 0.000000, 0.000000)
    velocity:         (0.238664, 1.838955, 5.305094)
    angular velocity: (0.893080, 6.075980, 1.327888)
    orientation:      (w=-0.808867, i=0.134443, j=-0.021906, k=-0.571996)
  Body  2
    density:          1.000000
    shape axes ratio: (1.000000, 1.000000, 1.000000)
    initial KE ratio: 0.500000
    position:         (4.000000, 0.000000, 0.000000)
    velocity:         (0.238664, 1.838955, 5.305094)
    angular velocity: (-3.967744, 4.676467, 1.366048)
    orientation:      (w=0.631559, i=-0.398643, j=-0.664870, k=-0.012856)

Preparing first step: implicit scheme, no bootstrap passes required.
First step may take longer than later steps.

First step completed in 0.184 s.

Step   100/2000    5.0% | t 5.000 | ETA 1m 39s | step 0.05s | KE 272.3625 | drift +0.48% | fluid 72.6116 | solid 199.7509
  Impulse FP iterations last/mean/max 4/4.03/5
Step   200/2000   10.0% | t 10.000 | ETA 1m 38s | step 0.07s | KE 273.6966 | drift +0.98% | fluid 72.6116 | solid 201.0850
  Impulse FP iterations last/mean/max 4/4.02/5
Step   300/2000   15.0% | t 15.000 | ETA 1m 32s | step 0.05s | KE 275.0539 | drift +1.48% | fluid 72.6116 | solid 202.4423
  Impulse FP iterations last/mean/max 4/4.02/5
Step   400/2000   20.0% | t 20.000 | ETA 1m 25s | step 0.05s | KE 276.4345 | drift +1.99% | fluid 72.6116 | solid 203.8230
  Impulse FP iterations last/mean/max 4/4.03/5
Step   500/2000   25.0% | t 25.000 | ETA 1m 19s | step 0.05s | KE 277.8383 | drift +2.50% | fluid 72.6116 | solid 205.2268
  Impulse FP iterations last/mean/max 4/4.02/5
Step   600/2000   30.0% | t 30.000 | ETA 1m 14s | step 0.06s | KE 279.2655 | drift +3.03% | fluid 72.6116 | solid 206.6539
  Impulse FP iterations last/mean/max 4/4.03/5
Step   700/2000   35.0% | t 35.000 | ETA 1m 10s | step 0.05s | KE 280.7158 | drift +3.57% | fluid 72.6116 | solid 208.1043
  Impulse FP iterations last/mean/max 4/4.03/5
Step   800/2000   40.0% | t 40.000 | ETA 1m 5s | step 0.05s | KE 282.1896 | drift +4.11% | fluid 72.6116 | solid 209.5780
  Impulse FP iterations last/mean/max 4/4.03/5
Step   900/2000   45.0% | t 45.000 | ETA 1m 0s | step 0.06s | KE 283.6865 | drift +4.66% | fluid 72.6116 | solid 211.0749
  Impulse FP iterations last/mean/max 4/4.02/5
Step  1000/2000   50.0% | t 50.000 | ETA 54s | step 0.06s | KE 285.2067 | drift +5.22% | fluid 72.6116 | solid 212.5951
  Impulse FP iterations last/mean/max 4/4.03/5
Step  1100/2000   55.0% | t 55.000 | ETA 49s | step 0.06s | KE 286.7502 | drift +5.79% | fluid 72.6116 | solid 214.1386
  Impulse FP iterations last/mean/max 4/4.03/5
Step  1200/2000   60.0% | t 60.000 | ETA 44s | step 0.06s | KE 288.3170 | drift +6.37% | fluid 72.6116 | solid 215.7054
  Impulse FP iterations last/mean/max 4/4.03/5
Step  1300/2000   65.0% | t 65.000 | ETA 38s | step 0.05s | KE 289.9070 | drift +6.96% | fluid 72.6116 | solid 217.2954
  Impulse FP iterations last/mean/max 4/4.03/5
Step  1400/2000   70.0% | t 70.000 | ETA 33s | step 0.06s | KE 291.5204 | drift +7.55% | fluid 72.6116 | solid 218.9088
  Impulse FP iterations last/mean/max 4/4.03/5
Step  1500/2000   75.0% | t 75.000 | ETA 27s | step 0.06s | KE 293.1569 | drift +8.16% | fluid 72.6116 | solid 220.5453
  Impulse FP iterations last/mean/max 4/4.03/5
Step  1600/2000   80.0% | t 80.000 | ETA 22s | step 0.06s | KE 294.8167 | drift +8.77% | fluid 72.6116 | solid 222.2052
  Impulse FP iterations last/mean/max 4/4.03/5
Step  1700/2000   85.0% | t 85.000 | ETA 16s | step 0.05s | KE 296.4999 | drift +9.39% | fluid 72.6116 | solid 223.8883
  Impulse FP iterations last/mean/max 4/4.03/5
Step  1800/2000   90.0% | t 90.000 | ETA 11s | step 0.06s | KE 298.2063 | drift +10.02% | fluid 72.6116 | solid 225.5948
  Impulse FP iterations last/mean/max 4/4.03/5
Step  1900/2000   95.0% | t 95.000 | ETA 5s | step 0.06s | KE 299.9360 | drift +10.66% | fluid 72.6116 | solid 227.3244
  Impulse FP iterations last/mean/max 4/4.03/5
Solver finished successfully - good job!
Results saved successfully.

================== Run summary ==================
  Bodies:            2
  Triangles / nodes: 256 / 516
  Timesteps:         2000  (dt = 0.05)
  Simulated time:    0 -> 100
  First-step setup:  0.184 s
  Mean time/step:    0.0562 s  (excl. first step)
  Total wall time:   1m 52s
  Impulse FP iters last/mean/max: 4 / 4.026 / 5
  Approx impulse solves/step:     4.026
  Impulse start cache hits/direct: 1999 / 1
  Impulse global drift P/H:       3.523669e-9 / 2.281859e-3
  Impulse per-body max drift P/H: 4.444497e-9 / 2.088146e-4
  CPU cores:         256 available, 8 Rayon worker thread(s)
  Started:           2026-06-24 02:37:13
  Finished:          2026-06-24 02:39:05
  Output file:       /work/e643/e643/shared/multi_ellip/studies/departing_sphericity_sweep/runs/triaxial/heterogeneous_sphere/triaxial_heterogeneous_sphere_eps0_rho1_E0p5_sep8_run01_impulse_noproj/multiple_body_complete.dat
================================================
