
================ Simulation setup ================
  Run label:         /work/e643/e643/shared/multi_ellip/studies/two_body_paper_sweeps/runs/spheroid_1_0p7_0p7/spheroid_1_0p7_0p7_rho0p3_E30_sep8_run01_impulse_noproj/
  Started:           2026-06-22 19:46:31
  Input file:        /work/e643/e643/shared/multi_ellip/studies/two_body_paper_sweeps/runs/spheroid_1_0p7_0p7/spheroid_1_0p7_0p7_rho0p3_E30_sep8_run01_impulse_noproj/input.txt
  Output file:       /work/e643/e643/shared/multi_ellip/studies/two_body_paper_sweeps/runs/spheroid_1_0p7_0p7/spheroid_1_0p7_0p7_rho0p3_E30_sep8_run01_impulse_noproj/multiple_body_complete.dat
  Bodies:            2
  Fluid density:     1
  Mesh:              ndiv 2 -> 256 triangles / 516 nodes
  Simulated time:    0 -> 100  (dt = 0.05, ~2000 steps)
  Output cadence:    every 1 step(s)
  Output rows:       ~2001
  Progress cadence:  every 100 step(s)
  CPU cores:         256 available, 8 Rayon worker thread(s)
  Strong coupling:   disabled
  Impulse scheme:    enabled
  Hamiltonian step:  disabled
  Hamiltonian midpt: disabled
  Variational step:  disabled
  Energy projection: disabled
  Projection particular metric: Euclidean
  Fluid KE gradient: disabled  (eps = 0.001, scale = 1, linear = 1, angular = 1)
  Fluid KE discrete gradient: disabled
  Impulse pair metric correction: disabled  (mode = pair discrete-gradient, cutoff = all pairs, inner/outer = 0/0, eps = 0.001, linear scale = 1, angular scale = 0)
  Impulse metric correction: disabled  (internal load constraint = disabled)
  Impulse variational defect probe: disabled
  Impulse quadratic pressure: disabled  (scale = 1)
  Added-mass stab:   disabled
  Exact BEM geometry: disabled
  Exact singular BEM: disabled
  Legacy singular SLP diagnostic: disabled
  Phi-dot blend:     0 (off)

  Solver guidance:
    - Strong coupling: use for stiff close-coupled runs; slower but more implicit.
    - Impulse scheme: use when impulse/momentum conservation or KE drift is the focus. Recommended.
    - Added-mass stab: use for higher mesh counts (ndiv > 3) to preserve stability - deprecated.
================================================
Solver starting - good luck!

Initial state:
  Body  1
    density:          0.300000
    shape axes ratio: (1.000000, 0.700000, 0.700000)
    initial KE ratio: 30.000000
    position:         (-4.000000, 0.000000, 0.000000)
    velocity:         (-0.588509, -0.301637, 0.283759)
    angular velocity: (4.546927, -2.537137, 3.516647)
    orientation:      (w=0.447214, i=0.894427, j=0.000000, k=0.000000)
  Body  2
    density:          0.300000
    shape axes ratio: (1.000000, 0.700000, 0.700000)
    initial KE ratio: 30.000000
    position:         (4.000000, 0.000000, 0.000000)
    velocity:         (-0.648723, -0.332499, 0.312792)
    angular velocity: (-0.558751, 5.819978, -2.300885)
    orientation:      (w=0.707107, i=0.000000, j=0.707107, k=0.000000)

Preparing first step: implicit scheme, no bootstrap passes required.
First step may take longer than later steps.

First step completed in 0.371 s.

Step   100/2000    5.0% | t 5.000 | ETA 5m 25s | step 0.19s | KE 27.3830 | drift -0.45% | fluid 5.6663 | solid 21.7167
  Impulse FP iterations last/mean/max 13/12.11/13
Step   200/2000   10.0% | t 10.000 | ETA 5m 16s | step 0.17s | KE 27.2478 | drift -0.94% | fluid 5.6378 | solid 21.6101
  Impulse FP iterations last/mean/max 12/12.28/13
Step   300/2000   15.0% | t 15.000 | ETA 5m 6s | step 0.20s | KE 27.3949 | drift -0.41% | fluid 5.6893 | solid 21.7056
  Impulse FP iterations last/mean/max 13/12.47/14
Step   400/2000   20.0% | t 20.000 | ETA 4m 55s | step 0.19s | KE 28.3797 | drift +3.17% | fluid 5.9687 | solid 22.4110
  Impulse FP iterations last/mean/max 14/12.71/15
Step   500/2000   25.0% | t 25.000 | ETA 4m 43s | step 0.20s | KE 29.7316 | drift +8.09% | fluid 6.3885 | solid 23.3431
  Impulse FP iterations last/mean/max 14/12.94/15
Step   600/2000   30.0% | t 30.000 | ETA 4m 26s | step 0.19s | KE 30.5680 | drift +11.13% | fluid 6.5363 | solid 24.0318
  Impulse FP iterations last/mean/max 13/13.01/15
Step   700/2000   35.0% | t 35.000 | ETA 4m 6s | step 0.19s | KE 30.9089 | drift +12.37% | fluid 6.5825 | solid 24.3263
  Impulse FP iterations last/mean/max 13/12.99/15
Step   800/2000   40.0% | t 40.000 | ETA 3m 46s | step 0.17s | KE 31.1087 | drift +13.09% | fluid 6.6133 | solid 24.4954
  Impulse FP iterations last/mean/max 12/12.93/15
Step   900/2000   45.0% | t 45.000 | ETA 3m 25s | step 0.17s | KE 31.2399 | drift +13.57% | fluid 6.6291 | solid 24.6108
  Impulse FP iterations last/mean/max 12/12.84/15
Step  1000/2000   50.0% | t 50.000 | ETA 3m 3s | step 0.15s | KE 31.3241 | drift +13.88% | fluid 6.6367 | solid 24.6874
  Impulse FP iterations last/mean/max 12/12.76/15
Step  1100/2000   55.0% | t 55.000 | ETA 2m 44s | step 0.17s | KE 31.3831 | drift +14.09% | fluid 6.6438 | solid 24.7393
  Impulse FP iterations last/mean/max 12/12.68/15
Step  1200/2000   60.0% | t 60.000 | ETA 2m 25s | step 0.18s | KE 31.4291 | drift +14.26% | fluid 6.6522 | solid 24.7769
  Impulse FP iterations last/mean/max 12/12.62/15
Step  1300/2000   65.0% | t 65.000 | ETA 2m 6s | step 0.16s | KE 31.4652 | drift +14.39% | fluid 6.6594 | solid 24.8058
  Impulse FP iterations last/mean/max 11/12.56/15
Step  1400/2000   70.0% | t 70.000 | ETA 1m 47s | step 0.18s | KE 31.4945 | drift +14.50% | fluid 6.6658 | solid 24.8287
  Impulse FP iterations last/mean/max 12/12.51/15
Step  1500/2000   75.0% | t 75.000 | ETA 1m 29s | step 0.14s | KE 31.5208 | drift +14.59% | fluid 6.6739 | solid 24.8469
  Impulse FP iterations last/mean/max 12/12.47/15
Step  1600/2000   80.0% | t 80.000 | ETA 1m 10s | step 0.14s | KE 31.5433 | drift +14.67% | fluid 6.6822 | solid 24.8611
  Impulse FP iterations last/mean/max 12/12.43/15
Step  1700/2000   85.0% | t 85.000 | ETA 52s | step 0.13s | KE 31.5575 | drift +14.73% | fluid 6.6862 | solid 24.8713
  Impulse FP iterations last/mean/max 12/12.39/15
Step  1800/2000   90.0% | t 90.000 | ETA 34s | step 0.11s | KE 31.5616 | drift +14.74% | fluid 6.6841 | solid 24.8775
  Impulse FP iterations last/mean/max 12/12.36/15
Step  1900/2000   95.0% | t 95.000 | ETA 16s | step 0.11s | KE 31.5599 | drift +14.73% | fluid 6.6793 | solid 24.8806
  Impulse FP iterations last/mean/max 12/12.32/15
Solver finished successfully - good job!
Results saved successfully.

================== Run summary ==================
  Bodies:            2
  Triangles / nodes: 256 / 516
  Timesteps:         2000  (dt = 0.05)
  Simulated time:    0 -> 100
  First-step setup:  0.371 s
  Mean time/step:    0.1646 s  (excl. first step)
  Total wall time:   5m 29s
  Impulse FP iters last/mean/max: 12 / 12.289 / 15
  Approx impulse solves/step:     12.290
  Impulse start cache hits/direct: 1999 / 1
  Impulse global drift P/H:       4.465469e-8 / 3.367148e-2
  Impulse per-body max drift P/H: 7.236479e-8 / 2.288414e-2
  CPU cores:         256 available, 8 Rayon worker thread(s)
  Started:           2026-06-22 19:46:31
  Finished:          2026-06-22 19:52:03
  Output file:       /work/e643/e643/shared/multi_ellip/studies/two_body_paper_sweeps/runs/spheroid_1_0p7_0p7/spheroid_1_0p7_0p7_rho0p3_E30_sep8_run01_impulse_noproj/multiple_body_complete.dat
================================================
