
================ Simulation setup ================
  Run label:         /work/e643/e643/shared/multi_ellip/studies/departing_sphericity_sweep/runs/triaxial/heterogeneous_aspherical/triaxial_heterogeneous_aspherical_eps1_rho1_E0p5_sep8_run05_impulse_noproj/
  Started:           2026-06-24 03:11:09
  Input file:        /work/e643/e643/shared/multi_ellip/studies/departing_sphericity_sweep/runs/triaxial/heterogeneous_aspherical/triaxial_heterogeneous_aspherical_eps1_rho1_E0p5_sep8_run05_impulse_noproj/input.txt
  Output file:       /work/e643/e643/shared/multi_ellip/studies/departing_sphericity_sweep/runs/triaxial/heterogeneous_aspherical/triaxial_heterogeneous_aspherical_eps1_rho1_E0p5_sep8_run05_impulse_noproj/multiple_body_complete.dat
  Bodies:            2
  Fluid density:     1
  Mesh:              ndiv 2 -> 256 triangles / 516 nodes
  Simulated time:    0 -> 100  (dt = 0.05, ~2000 steps)
  Output cadence:    every 1 step(s)
  Output rows:       ~2001
  Progress cadence:  every 100 step(s)
  CPU cores:         256 available, 8 Rayon worker thread(s)
  Strong coupling:   disabled
  Impulse scheme:    enabled
  Hamiltonian step:  disabled
  Hamiltonian midpt: disabled
  Variational step:  disabled
  Energy projection: disabled
  Projection particular metric: Euclidean
  Fluid KE gradient: disabled  (eps = 0.001, scale = 1, linear = 1, angular = 1)
  Fluid KE discrete gradient: disabled
  Impulse pair metric correction: disabled  (mode = pair discrete-gradient, cutoff = all pairs, inner/outer = 0/0, eps = 0.001, linear scale = 1, angular scale = 0)
  Impulse metric correction: disabled  (internal load constraint = disabled)
  Impulse variational defect probe: disabled
  Impulse quadratic pressure: disabled  (scale = 1)
  Added-mass stab:   disabled
  Exact BEM geometry: disabled
  Exact singular BEM: disabled
  Legacy singular SLP diagnostic: disabled
  Phi-dot blend:     0 (off)

  Solver guidance:
    - Strong coupling: use for stiff close-coupled runs; slower but more implicit.
    - Impulse scheme: use when impulse/momentum conservation or KE drift is the focus. Recommended.
    - Added-mass stab: use for higher mesh counts (ndiv > 3) to preserve stability - deprecated.
================================================
Solver starting - good luck!

Initial state:
  Body  1
    density:          1.000000
    shape axes ratio: (1.000000, 0.500000, 0.250000)
    initial KE ratio: 0.500000
    position:         (-4.000000, 0.000000, 0.000000)
    velocity:         (5.606453, -2.170196, 0.410558)
    angular velocity: (5.271460, 1.792368, 2.911622)
    orientation:      (w=-0.411086, i=0.877743, j=-0.174033, k=-0.174034)
  Body  2
    density:          1.000000
    shape axes ratio: (1.000000, 0.500000, 0.250000)
    initial KE ratio: 0.500000
    position:         (4.000000, 0.000000, 0.000000)
    velocity:         (8.197680, -3.173231, 0.600312)
    angular velocity: (-0.938251, 0.124216, 6.211495)
    orientation:      (w=0.728252, i=-0.117332, j=-0.273571, k=0.617285)

Preparing first step: implicit scheme, no bootstrap passes required.
First step may take longer than later steps.

First step completed in 0.312 s.

Step   100/2000    5.0% | t 5.000 | ETA 5m 14s | step 0.17s | KE 586.4869 | drift -0.39% | fluid 209.2703 | solid 377.2167
  Impulse FP iterations last/mean/max 16/16.63/19
Step   200/2000   10.0% | t 10.000 | ETA 5m 3s | step 0.16s | KE 593.8019 | drift +0.85% | fluid 149.6350 | solid 444.1669
  Impulse FP iterations last/mean/max 16/16.72/20
Step   300/2000   15.0% | t 15.000 | ETA 4m 47s | step 0.16s | KE 593.9693 | drift +0.88% | fluid 136.1402 | solid 457.8291
  Impulse FP iterations last/mean/max 15/16.79/20
Step   400/2000   20.0% | t 20.000 | ETA 4m 32s | step 0.16s | KE 592.6401 | drift +0.65% | fluid 145.2149 | solid 447.4252
  Impulse FP iterations last/mean/max 16/16.75/20
Step   500/2000   25.0% | t 25.000 | ETA 4m 14s | step 0.16s | KE 597.1385 | drift +1.42% | fluid 158.7306 | solid 438.4079
  Impulse FP iterations last/mean/max 16/16.74/20
Step   600/2000   30.0% | t 30.000 | ETA 3m 56s | step 0.18s | KE 589.0198 | drift +0.04% | fluid 252.4968 | solid 336.5231
  Impulse FP iterations last/mean/max 18/16.72/20
Step   700/2000   35.0% | t 35.000 | ETA 3m 38s | step 0.18s | KE 587.2817 | drift -0.26% | fluid 221.7206 | solid 365.5611
  Impulse FP iterations last/mean/max 19/16.71/20
Step   800/2000   40.0% | t 40.000 | ETA 3m 21s | step 0.17s | KE 591.1878 | drift +0.41% | fluid 170.2639 | solid 420.9239
  Impulse FP iterations last/mean/max 16/16.72/20
Step   900/2000   45.0% | t 45.000 | ETA 3m 4s | step 0.17s | KE 592.0284 | drift +0.55% | fluid 163.7742 | solid 428.2542
  Impulse FP iterations last/mean/max 16/16.71/20
Step  1000/2000   50.0% | t 50.000 | ETA 2m 48s | step 0.15s | KE 590.9016 | drift +0.36% | fluid 133.6478 | solid 457.2538
  Impulse FP iterations last/mean/max 15/16.70/20
Step  1100/2000   55.0% | t 55.000 | ETA 2m 31s | step 0.19s | KE 584.0729 | drift -0.80% | fluid 235.2558 | solid 348.8171
  Impulse FP iterations last/mean/max 18/16.66/20
Step  1200/2000   60.0% | t 60.000 | ETA 2m 14s | step 0.15s | KE 590.0679 | drift +0.22% | fluid 124.9433 | solid 465.1246
  Impulse FP iterations last/mean/max 15/16.65/20
Step  1300/2000   65.0% | t 65.000 | ETA 1m 57s | step 0.15s | KE 588.7980 | drift +0.00% | fluid 119.4471 | solid 469.3509
  Impulse FP iterations last/mean/max 15/16.65/20
Step  1400/2000   70.0% | t 70.000 | ETA 1m 41s | step 0.17s | KE 590.8423 | drift +0.35% | fluid 143.1789 | solid 447.6634
  Impulse FP iterations last/mean/max 17/16.65/20
Step  1500/2000   75.0% | t 75.000 | ETA 1m 24s | step 0.18s | KE 587.3569 | drift -0.24% | fluid 199.5256 | solid 387.8313
  Impulse FP iterations last/mean/max 17/16.66/20
Step  1600/2000   80.0% | t 80.000 | ETA 1m 7s | step 0.15s | KE 585.8292 | drift -0.50% | fluid 237.2830 | solid 348.5463
  Impulse FP iterations last/mean/max 16/16.65/20
Step  1700/2000   85.0% | t 85.000 | ETA 50s | step 0.18s | KE 587.2875 | drift -0.26% | fluid 258.5172 | solid 328.7703
  Impulse FP iterations last/mean/max 19/16.66/20
Step  1800/2000   90.0% | t 90.000 | ETA 33s | step 0.16s | KE 591.9450 | drift +0.54% | fluid 174.0086 | solid 417.9364
  Impulse FP iterations last/mean/max 16/16.67/20
Step  1900/2000   95.0% | t 95.000 | ETA 16s | step 0.15s | KE 587.1591 | drift -0.28% | fluid 177.6160 | solid 409.5431
  Impulse FP iterations last/mean/max 16/16.68/20
Solver finished successfully - good job!
Results saved successfully.

================== Run summary ==================
  Bodies:            2
  Triangles / nodes: 256 / 516
  Timesteps:         2000  (dt = 0.05)
  Simulated time:    0 -> 100
  First-step setup:  0.312 s
  Mean time/step:    0.1672 s  (excl. first step)
  Total wall time:   5m 34s
  Impulse FP iters last/mean/max: 17 / 16.688 / 20
  Approx impulse solves/step:     16.688
  Impulse start cache hits/direct: 1999 / 1
  Impulse global drift P/H:       1.420905e-9 / 3.803730e-2
  Impulse per-body max drift P/H: 4.250812e-9 / 7.887157e-2
  CPU cores:         256 available, 8 Rayon worker thread(s)
  Started:           2026-06-24 03:11:09
  Finished:          2026-06-24 03:16:44
  Output file:       /work/e643/e643/shared/multi_ellip/studies/departing_sphericity_sweep/runs/triaxial/heterogeneous_aspherical/triaxial_heterogeneous_aspherical_eps1_rho1_E0p5_sep8_run05_impulse_noproj/multiple_body_complete.dat
================================================
