
================ Simulation setup ================
  Run label:         /work/e643/e643/shared/multi_ellip/studies/multibody_convergence_sweep/runs/periodic_grid_ellipsoid_1_0p8_0p6_rho4_E1_sep8_nd2_dt0p05/
  Started:           2026-06-22 18:51:54
  Input file:        /work/e643/e643/shared/multi_ellip/studies/multibody_convergence_sweep/runs/periodic_grid_ellipsoid_1_0p8_0p6_rho4_E1_sep8_nd2_dt0p05/input.txt
  Output file:       /work/e643/e643/shared/multi_ellip/studies/multibody_convergence_sweep/runs/periodic_grid_ellipsoid_1_0p8_0p6_rho4_E1_sep8_nd2_dt0p05/multiple_body_complete.dat
  Bodies:            2
  Fluid density:     1
  Mesh:              ndiv 2 -> 256 triangles / 516 nodes
  Simulated time:    0 -> 10  (dt = 0.05, ~200 steps)
  Output cadence:    every 1 step(s)
  Output rows:       ~201
  Progress cadence:  every 20 step(s)
  CPU cores:         256 available, 16 Rayon worker thread(s)
  Strong coupling:   disabled
  Impulse scheme:    enabled
  Hamiltonian step:  disabled
  Hamiltonian midpt: disabled
  Variational step:  disabled
  Energy projection: disabled
  Projection particular metric: Euclidean
  Fluid KE gradient: disabled  (eps = 0.001, scale = 1, linear = 1, angular = 1)
  Fluid KE discrete gradient: disabled
  Impulse pair metric correction: disabled  (mode = pair discrete-gradient, cutoff = all pairs, inner/outer = 0/0, eps = 0.001, linear scale = 1, angular scale = 0)
  Impulse metric correction: disabled  (internal load constraint = disabled)
  Impulse variational defect probe: disabled
  Impulse quadratic pressure: disabled  (scale = 1)
  Added-mass stab:   disabled
  Exact BEM geometry: disabled
  Exact singular BEM: disabled
  Legacy singular SLP diagnostic: disabled
  Phi-dot blend:     0 (off)

  Solver guidance:
    - Strong coupling: use for stiff close-coupled runs; slower but more implicit.
    - Impulse scheme: use when impulse/momentum conservation or KE drift is the focus. Recommended.
    - Added-mass stab: use for higher mesh counts (ndiv > 3) to preserve stability - deprecated.
================================================
Solver starting - good luck!

Initial state:
  Body  1
    density:          4.000000
    shape axes ratio: (1.000000, 0.800000, 0.600000)
    initial KE ratio: 1.000000
    position:         (-4.000000, 0.000000, 0.000000)
    velocity:         (-2.785448, -1.440374, -2.951236)
    angular velocity: (1.173099, -5.008766, 3.607564)
    orientation:      (w=0.447214, i=0.894427, j=0.000000, k=0.000000)
  Body  2
    density:          4.000000
    shape axes ratio: (1.000000, 0.800000, 0.600000)
    initial KE ratio: 1.000000
    position:         (4.000000, 0.000000, 0.000000)
    velocity:         (-2.851536, -1.474549, -3.021258)
    angular velocity: (-0.314935, -4.273115, 4.595620)
    orientation:      (w=0.707107, i=0.000000, j=0.707107, k=0.000000)

Preparing first step: implicit scheme, no bootstrap passes required.
First step may take longer than later steps.

First step completed in 6.203 s.

Step    20/200    10.0% | t 1.000 | ETA 15s | step 0.08s | KE 646.7342 | drift -0.42% | fluid 54.3983 | solid 592.3359
  Impulse FP iterations last/mean/max 9/8.80/9
Step    40/200    20.0% | t 2.000 | ETA 14s | step 0.09s | KE 643.3901 | drift -0.94% | fluid 63.9802 | solid 579.4099
  Impulse FP iterations last/mean/max 9/8.78/9
Step    60/200    30.0% | t 3.000 | ETA 12s | step 0.08s | KE 640.3071 | drift -1.41% | fluid 50.3058 | solid 590.0013
  Impulse FP iterations last/mean/max 8/8.75/9
Step    80/200    40.0% | t 4.000 | ETA 10s | step 0.08s | KE 636.5351 | drift -1.99% | fluid 54.5296 | solid 582.0055
  Impulse FP iterations last/mean/max 9/8.74/9
Step   100/200    50.0% | t 5.000 | ETA 8s | step 0.08s | KE 632.2010 | drift -2.66% | fluid 53.7172 | solid 578.4837
  Impulse FP iterations last/mean/max 9/8.76/9
Step   120/200    60.0% | t 6.000 | ETA 6s | step 0.07s | KE 627.4649 | drift -3.39% | fluid 43.6719 | solid 583.7930
  Impulse FP iterations last/mean/max 8/8.78/9
Step   140/200    70.0% | t 7.000 | ETA 4s | step 0.07s | KE 621.7918 | drift -4.26% | fluid 51.4221 | solid 570.3697
  Impulse FP iterations last/mean/max 9/8.79/9
Step   160/200    80.0% | t 8.000 | ETA 3s | step 0.08s | KE 616.0879 | drift -5.14% | fluid 47.7304 | solid 568.3575
  Impulse FP iterations last/mean/max 9/8.79/9
Step   180/200    90.0% | t 9.000 | ETA 1s | step 0.08s | KE 610.4278 | drift -6.01% | fluid 60.1776 | solid 550.2502
  Impulse FP iterations last/mean/max 8/8.78/9
Solver finished successfully - good job!
Results saved successfully.

================== Run summary ==================
  Bodies:            2
  Triangles / nodes: 256 / 516
  Timesteps:         200  (dt = 0.05)
  Simulated time:    0 -> 10
  First-step setup:  6.203 s
  Mean time/step:    0.0806 s  (excl. first step)
  Total wall time:   22.24s
  Impulse FP iters last/mean/max: 9 / 8.785 / 9
  Approx impulse solves/step:     8.790
  Impulse start cache hits/direct: 199 / 1
  Impulse global drift P/H:       6.794213e-10 / 1.698027e-3
  Impulse per-body max drift P/H: 8.020472e-10 / 8.168572e-4
  CPU cores:         256 available, 16 Rayon worker thread(s)
  Started:           2026-06-22 18:51:54
  Finished:          2026-06-22 18:52:17
  Output file:       /work/e643/e643/shared/multi_ellip/studies/multibody_convergence_sweep/runs/periodic_grid_ellipsoid_1_0p8_0p6_rho4_E1_sep8_nd2_dt0p05/multiple_body_complete.dat
================================================
