
================ Simulation setup ================
  Run label:         /work/e643/e643/shared/multi_ellip/studies/departing_sphericity_sweep/runs/triaxial/heterogeneous_sphere/triaxial_heterogeneous_sphere_eps0_rho1_E0p5_sep8_run06_impulse_noproj/
  Started:           2026-06-24 02:37:13
  Input file:        /work/e643/e643/shared/multi_ellip/studies/departing_sphericity_sweep/runs/triaxial/heterogeneous_sphere/triaxial_heterogeneous_sphere_eps0_rho1_E0p5_sep8_run06_impulse_noproj/input.txt
  Output file:       /work/e643/e643/shared/multi_ellip/studies/departing_sphericity_sweep/runs/triaxial/heterogeneous_sphere/triaxial_heterogeneous_sphere_eps0_rho1_E0p5_sep8_run06_impulse_noproj/multiple_body_complete.dat
  Bodies:            2
  Fluid density:     1
  Mesh:              ndiv 2 -> 256 triangles / 516 nodes
  Simulated time:    0 -> 100  (dt = 0.05, ~2000 steps)
  Output cadence:    every 1 step(s)
  Output rows:       ~2001
  Progress cadence:  every 100 step(s)
  CPU cores:         256 available, 8 Rayon worker thread(s)
  Strong coupling:   disabled
  Impulse scheme:    enabled
  Hamiltonian step:  disabled
  Hamiltonian midpt: disabled
  Variational step:  disabled
  Energy projection: disabled
  Projection particular metric: Euclidean
  Fluid KE gradient: disabled  (eps = 0.001, scale = 1, linear = 1, angular = 1)
  Fluid KE discrete gradient: disabled
  Impulse pair metric correction: disabled  (mode = pair discrete-gradient, cutoff = all pairs, inner/outer = 0/0, eps = 0.001, linear scale = 1, angular scale = 0)
  Impulse metric correction: disabled  (internal load constraint = disabled)
  Impulse variational defect probe: disabled
  Impulse quadratic pressure: disabled  (scale = 1)
  Added-mass stab:   disabled
  Exact BEM geometry: disabled
  Exact singular BEM: disabled
  Legacy singular SLP diagnostic: disabled
  Phi-dot blend:     0 (off)

  Solver guidance:
    - Strong coupling: use for stiff close-coupled runs; slower but more implicit.
    - Impulse scheme: use when impulse/momentum conservation or KE drift is the focus. Recommended.
    - Added-mass stab: use for higher mesh counts (ndiv > 3) to preserve stability - deprecated.
================================================
Solver starting - good luck!

Initial state:
  Body  1
    density:          1.000000
    shape axes ratio: (1.000000, 1.000000, 1.000000)
    initial KE ratio: 0.500000
    position:         (-4.000000, 0.000000, 0.000000)
    velocity:         (-2.455608, 0.488686, 5.031293)
    angular velocity: (-2.050732, 5.660896, 1.796434)
    orientation:      (w=-0.830796, i=0.226072, j=-0.010004, k=-0.508497)
  Body  2
    density:          1.000000
    shape axes ratio: (1.000000, 1.000000, 1.000000)
    initial KE ratio: 0.500000
    position:         (4.000000, 0.000000, 0.000000)
    velocity:         (-2.455608, 0.488686, 5.031293)
    angular velocity: (4.957192, -1.884206, 3.369634)
    orientation:      (w=0.334190, i=-0.179602, j=-0.821431, k=-0.425807)

Preparing first step: implicit scheme, no bootstrap passes required.
First step may take longer than later steps.

First step completed in 0.215 s.

Step   100/2000    5.0% | t 5.000 | ETA 2m 33s | step 0.08s | KE 267.6952 | drift -1.19% | fluid 72.4867 | solid 195.2085
  Impulse FP iterations last/mean/max 6/6.00/6
Step   200/2000   10.0% | t 10.000 | ETA 2m 27s | step 0.08s | KE 266.4583 | drift -1.65% | fluid 72.4867 | solid 193.9716
  Impulse FP iterations last/mean/max 6/6.00/6
Step   300/2000   15.0% | t 15.000 | ETA 2m 19s | step 0.09s | KE 267.2159 | drift -1.37% | fluid 72.4867 | solid 194.7292
  Impulse FP iterations last/mean/max 6/5.99/6
Step   400/2000   20.0% | t 20.000 | ETA 2m 11s | step 0.08s | KE 269.9682 | drift -0.35% | fluid 72.4867 | solid 197.4815
  Impulse FP iterations last/mean/max 6/5.99/6
Step   500/2000   25.0% | t 25.000 | ETA 2m 4s | step 0.09s | KE 274.7151 | drift +1.40% | fluid 72.4867 | solid 202.2284
  Impulse FP iterations last/mean/max 6/5.99/6
Step   600/2000   30.0% | t 30.000 | ETA 1m 56s | step 0.08s | KE 281.4568 | drift +3.89% | fluid 72.4867 | solid 208.9701
  Impulse FP iterations last/mean/max 6/5.99/6
Step   700/2000   35.0% | t 35.000 | ETA 1m 47s | step 0.08s | KE 290.1930 | drift +7.11% | fluid 72.4867 | solid 217.7063
  Impulse FP iterations last/mean/max 6/5.99/6
Step   800/2000   40.0% | t 40.000 | ETA 1m 38s | step 0.07s | KE 300.9233 | drift +11.07% | fluid 72.4867 | solid 228.4366
  Impulse FP iterations last/mean/max 6/5.99/6
Step   900/2000   45.0% | t 45.000 | ETA 1m 29s | step 0.07s | KE 313.6475 | drift +15.77% | fluid 72.4867 | solid 241.1608
  Impulse FP iterations last/mean/max 6/5.99/6
Step  1000/2000   50.0% | t 50.000 | ETA 1m 20s | step 0.08s | KE 328.3656 | drift +21.20% | fluid 72.4867 | solid 255.8789
  Impulse FP iterations last/mean/max 6/5.97/6
Step  1100/2000   55.0% | t 55.000 | ETA 1m 12s | step 0.08s | KE 345.0777 | drift +27.37% | fluid 72.4868 | solid 272.5909
  Impulse FP iterations last/mean/max 6/5.96/6
Step  1200/2000   60.0% | t 60.000 | ETA 1m 4s | step 0.09s | KE 363.7840 | drift +34.27% | fluid 72.4868 | solid 291.2972
  Impulse FP iterations last/mean/max 6/5.94/6
Step  1300/2000   65.0% | t 65.000 | ETA 56s | step 0.09s | KE 384.4843 | drift +41.91% | fluid 72.4868 | solid 311.9975
  Impulse FP iterations last/mean/max 6/5.92/6
Step  1400/2000   70.0% | t 70.000 | ETA 48s | step 0.08s | KE 407.1788 | drift +50.29% | fluid 72.4868 | solid 334.6920
  Impulse FP iterations last/mean/max 6/5.91/6
Step  1500/2000   75.0% | t 75.000 | ETA 39s | step 0.07s | KE 431.8671 | drift +59.40% | fluid 72.4868 | solid 359.3803
  Impulse FP iterations last/mean/max 5/5.89/6
Step  1600/2000   80.0% | t 80.000 | ETA 31s | step 0.07s | KE 458.5492 | drift +69.25% | fluid 72.4868 | solid 386.0624
  Impulse FP iterations last/mean/max 5/5.87/6
Step  1700/2000   85.0% | t 85.000 | ETA 23s | step 0.06s | KE 487.2251 | drift +79.84% | fluid 72.4868 | solid 414.7383
  Impulse FP iterations last/mean/max 5/5.84/6
Step  1800/2000   90.0% | t 90.000 | ETA 15s | step 0.06s | KE 517.8944 | drift +91.16% | fluid 72.4869 | solid 445.4075
  Impulse FP iterations last/mean/max 5/5.83/6
Step  1900/2000   95.0% | t 95.000 | ETA 7s | step 0.06s | KE 550.5572 | drift +103.21% | fluid 72.4869 | solid 478.0703
  Impulse FP iterations last/mean/max 5/5.81/6
Solver finished successfully - good job!
Results saved successfully.

================== Run summary ==================
  Bodies:            2
  Triangles / nodes: 256 / 516
  Timesteps:         2000  (dt = 0.05)
  Simulated time:    0 -> 100
  First-step setup:  0.215 s
  Mean time/step:    0.0782 s  (excl. first step)
  Total wall time:   2m 36s
  Impulse FP iters last/mean/max: 6 / 5.791 / 6
  Approx impulse solves/step:     5.792
  Impulse start cache hits/direct: 1999 / 1
  Impulse global drift P/H:       2.183873e-9 / 5.071924e-2
  Impulse per-body max drift P/H: 3.007247e-9 / 4.120368e-3
  CPU cores:         256 available, 8 Rayon worker thread(s)
  Started:           2026-06-24 02:37:13
  Finished:          2026-06-24 02:39:50
  Output file:       /work/e643/e643/shared/multi_ellip/studies/departing_sphericity_sweep/runs/triaxial/heterogeneous_sphere/triaxial_heterogeneous_sphere_eps0_rho1_E0p5_sep8_run06_impulse_noproj/multiple_body_complete.dat
================================================
