
================ Simulation setup ================
  Run label:         /work/e643/e643/shared/multi_ellip/studies/departing_sphericity_sweep/runs/triaxial/homogeneous/triaxial_homogeneous_eps0p001_rho1_E0p5_sep8_run07_impulse_noproj/
  Started:           2026-06-24 02:26:25
  Input file:        /work/e643/e643/shared/multi_ellip/studies/departing_sphericity_sweep/runs/triaxial/homogeneous/triaxial_homogeneous_eps0p001_rho1_E0p5_sep8_run07_impulse_noproj/input.txt
  Output file:       /work/e643/e643/shared/multi_ellip/studies/departing_sphericity_sweep/runs/triaxial/homogeneous/triaxial_homogeneous_eps0p001_rho1_E0p5_sep8_run07_impulse_noproj/multiple_body_complete.dat
  Bodies:            2
  Fluid density:     1
  Mesh:              ndiv 2 -> 256 triangles / 516 nodes
  Simulated time:    0 -> 100  (dt = 0.05, ~2000 steps)
  Output cadence:    every 1 step(s)
  Output rows:       ~2001
  Progress cadence:  every 100 step(s)
  CPU cores:         256 available, 8 Rayon worker thread(s)
  Strong coupling:   disabled
  Impulse scheme:    enabled
  Hamiltonian step:  disabled
  Hamiltonian midpt: disabled
  Variational step:  disabled
  Energy projection: disabled
  Projection particular metric: Euclidean
  Fluid KE gradient: disabled  (eps = 0.001, scale = 1, linear = 1, angular = 1)
  Fluid KE discrete gradient: disabled
  Impulse pair metric correction: disabled  (mode = pair discrete-gradient, cutoff = all pairs, inner/outer = 0/0, eps = 0.001, linear scale = 1, angular scale = 0)
  Impulse metric correction: disabled  (internal load constraint = disabled)
  Impulse variational defect probe: disabled
  Impulse quadratic pressure: disabled  (scale = 1)
  Added-mass stab:   disabled
  Exact BEM geometry: disabled
  Exact singular BEM: disabled
  Legacy singular SLP diagnostic: disabled
  Phi-dot blend:     0 (off)

  Solver guidance:
    - Strong coupling: use for stiff close-coupled runs; slower but more implicit.
    - Impulse scheme: use when impulse/momentum conservation or KE drift is the focus. Recommended.
    - Added-mass stab: use for higher mesh counts (ndiv > 3) to preserve stability - deprecated.
================================================
Solver starting - good luck!

Initial state:
  Body  1
    density:          1.000000
    shape axes ratio: (1.000000, 0.999001, 0.998003)
    initial KE ratio: 0.500000
    position:         (-4.000000, 0.000000, 0.000000)
    velocity:         (0.272785, 4.795060, 2.918529)
    angular velocity: (2.314881, -5.120013, -2.811622)
    orientation:      (w=-0.550720, i=0.814913, j=-0.180322, k=0.010382)
  Body  2
    density:          1.000000
    shape axes ratio: (1.000000, 0.999001, 0.998003)
    initial KE ratio: 0.500000
    position:         (4.000000, 0.000000, 0.000000)
    velocity:         (0.272887, 4.796855, 2.919621)
    angular velocity: (-1.284355, 2.007288, -5.813746)
    orientation:      (w=0.129371, i=-0.458896, j=-0.263405, k=-0.838627)

Preparing first step: implicit scheme, no bootstrap passes required.
First step may take longer than later steps.

First step completed in 0.227 s.

Step   100/2000    5.0% | t 5.000 | ETA 3m 1s | step 0.10s | KE 272.1114 | drift +0.35% | fluid 72.6753 | solid 199.4361
  Impulse FP iterations last/mean/max 7/6.97/7
Step   200/2000   10.0% | t 10.000 | ETA 2m 53s | step 0.09s | KE 273.0999 | drift +0.71% | fluid 72.6612 | solid 200.4387
  Impulse FP iterations last/mean/max 6/6.96/7
Step   300/2000   15.0% | t 15.000 | ETA 2m 44s | step 0.10s | KE 274.1247 | drift +1.09% | fluid 72.6797 | solid 201.4451
  Impulse FP iterations last/mean/max 7/6.95/7
Step   400/2000   20.0% | t 20.000 | ETA 2m 35s | step 0.09s | KE 275.1954 | drift +1.49% | fluid 72.6703 | solid 202.5251
  Impulse FP iterations last/mean/max 7/6.96/7
Step   500/2000   25.0% | t 25.000 | ETA 2m 25s | step 0.10s | KE 276.3036 | drift +1.90% | fluid 72.6896 | solid 203.6140
  Impulse FP iterations last/mean/max 7/6.96/7
Step   600/2000   30.0% | t 30.000 | ETA 2m 15s | step 0.10s | KE 277.4582 | drift +2.32% | fluid 72.6812 | solid 204.7770
  Impulse FP iterations last/mean/max 7/6.96/7
Step   700/2000   35.0% | t 35.000 | ETA 2m 6s | step 0.10s | KE 278.6564 | drift +2.76% | fluid 72.6896 | solid 205.9668
  Impulse FP iterations last/mean/max 7/6.96/7
Step   800/2000   40.0% | t 40.000 | ETA 1m 56s | step 0.10s | KE 279.9007 | drift +3.22% | fluid 72.6823 | solid 207.2184
  Impulse FP iterations last/mean/max 7/6.96/7
Step   900/2000   45.0% | t 45.000 | ETA 1m 47s | step 0.09s | KE 281.1943 | drift +3.70% | fluid 72.6612 | solid 208.5331
  Impulse FP iterations last/mean/max 7/6.97/7
Step  1000/2000   50.0% | t 50.000 | ETA 1m 37s | step 0.10s | KE 282.5286 | drift +4.19% | fluid 72.6881 | solid 209.8405
  Impulse FP iterations last/mean/max 7/6.97/7
Step  1100/2000   55.0% | t 55.000 | ETA 1m 27s | step 0.10s | KE 283.9184 | drift +4.70% | fluid 72.6690 | solid 211.2494
  Impulse FP iterations last/mean/max 7/6.97/7
Step  1200/2000   60.0% | t 60.000 | ETA 1m 18s | step 0.10s | KE 285.3547 | drift +5.23% | fluid 72.6668 | solid 212.6879
  Impulse FP iterations last/mean/max 7/6.97/7
Step  1300/2000   65.0% | t 65.000 | ETA 1m 8s | step 0.10s | KE 286.8416 | drift +5.78% | fluid 72.6676 | solid 214.1740
  Impulse FP iterations last/mean/max 7/6.97/7
Step  1400/2000   70.0% | t 70.000 | ETA 58s | step 0.09s | KE 288.3791 | drift +6.35% | fluid 72.6755 | solid 215.7036
  Impulse FP iterations last/mean/max 7/6.97/7
Step  1500/2000   75.0% | t 75.000 | ETA 48s | step 0.09s | KE 289.9673 | drift +6.93% | fluid 72.6911 | solid 217.2762
  Impulse FP iterations last/mean/max 7/6.97/7
Step  1600/2000   80.0% | t 80.000 | ETA 39s | step 0.10s | KE 291.6163 | drift +7.54% | fluid 72.6658 | solid 218.9505
  Impulse FP iterations last/mean/max 7/6.97/7
Step  1700/2000   85.0% | t 85.000 | ETA 29s | step 0.09s | KE 293.3155 | drift +8.17% | fluid 72.6742 | solid 220.6413
  Impulse FP iterations last/mean/max 7/6.97/7
Step  1800/2000   90.0% | t 90.000 | ETA 19s | step 0.10s | KE 295.0707 | drift +8.82% | fluid 72.6746 | solid 222.3961
  Impulse FP iterations last/mean/max 7/6.97/7
Step  1900/2000   95.0% | t 95.000 | ETA 9s | step 0.09s | KE 296.8847 | drift +9.49% | fluid 72.6671 | solid 224.2176
  Impulse FP iterations last/mean/max 6/6.97/7
Solver finished successfully - good job!
Results saved successfully.

================== Run summary ==================
  Bodies:            2
  Triangles / nodes: 256 / 516
  Timesteps:         2000  (dt = 0.05)
  Simulated time:    0 -> 100
  First-step setup:  0.227 s
  Mean time/step:    0.0975 s  (excl. first step)
  Total wall time:   3m 15s
  Impulse FP iters last/mean/max: 7 / 6.960 / 7
  Approx impulse solves/step:     6.961
  Impulse start cache hits/direct: 1999 / 1
  Impulse global drift P/H:       9.839222e-9 / 2.730757e-3
  Impulse per-body max drift P/H: 2.865997e-8 / 2.051777e-4
  CPU cores:         256 available, 8 Rayon worker thread(s)
  Started:           2026-06-24 02:26:25
  Finished:          2026-06-24 02:29:41
  Output file:       /work/e643/e643/shared/multi_ellip/studies/departing_sphericity_sweep/runs/triaxial/homogeneous/triaxial_homogeneous_eps0p001_rho1_E0p5_sep8_run07_impulse_noproj/multiple_body_complete.dat
================================================
