
================ Simulation setup ================
  Run label:         /work/e643/e643/shared/multi_ellip/studies/two_body_paper_sweeps/runs/ellipsoid_1_0p8_0p6/ellipsoid_1_0p8_0p6_rho0p03_E30_sep5_run02_impulse_noproj/
  Started:           2026-06-22 20:15:39
  Input file:        /work/e643/e643/shared/multi_ellip/studies/two_body_paper_sweeps/runs/ellipsoid_1_0p8_0p6/ellipsoid_1_0p8_0p6_rho0p03_E30_sep5_run02_impulse_noproj/input.txt
  Output file:       /work/e643/e643/shared/multi_ellip/studies/two_body_paper_sweeps/runs/ellipsoid_1_0p8_0p6/ellipsoid_1_0p8_0p6_rho0p03_E30_sep5_run02_impulse_noproj/multiple_body_complete.dat
  Bodies:            2
  Fluid density:     1
  Mesh:              ndiv 2 -> 256 triangles / 516 nodes
  Simulated time:    0 -> 100  (dt = 0.05, ~2000 steps)
  Output cadence:    every 1 step(s)
  Output rows:       ~2001
  Progress cadence:  every 100 step(s)
  CPU cores:         256 available, 8 Rayon worker thread(s)
  Strong coupling:   disabled
  Impulse scheme:    enabled
  Hamiltonian step:  disabled
  Hamiltonian midpt: disabled
  Variational step:  disabled
  Energy projection: disabled
  Projection particular metric: Euclidean
  Fluid KE gradient: disabled  (eps = 0.001, scale = 1, linear = 1, angular = 1)
  Fluid KE discrete gradient: disabled
  Impulse pair metric correction: disabled  (mode = pair discrete-gradient, cutoff = all pairs, inner/outer = 0/0, eps = 0.001, linear scale = 1, angular scale = 0)
  Impulse metric correction: disabled  (internal load constraint = disabled)
  Impulse variational defect probe: disabled
  Impulse quadratic pressure: disabled  (scale = 1)
  Added-mass stab:   disabled
  Exact BEM geometry: disabled
  Exact singular BEM: disabled
  Legacy singular SLP diagnostic: disabled
  Phi-dot blend:     0 (off)

  Solver guidance:
    - Strong coupling: use for stiff close-coupled runs; slower but more implicit.
    - Impulse scheme: use when impulse/momentum conservation or KE drift is the focus. Recommended.
    - Added-mass stab: use for higher mesh counts (ndiv > 3) to preserve stability - deprecated.
================================================
Solver starting - good luck!

Initial state:
  Body  1
    density:          0.030000
    shape axes ratio: (1.000000, 0.800000, 0.600000)
    initial KE ratio: 30.000000
    position:         (-2.500000, 0.000000, 0.000000)
    velocity:         (-0.310741, -0.033511, 0.607786)
    angular velocity: (5.638938, -2.269450, 1.590722)
    orientation:      (w=0.577350, i=0.577350, j=0.577350, k=0.000000)
  Body  2
    density:          0.030000
    shape axes ratio: (1.000000, 0.800000, 0.600000)
    initial KE ratio: 30.000000
    position:         (2.500000, 0.000000, 0.000000)
    velocity:         (-0.347345, -0.037459, 0.679379)
    angular velocity: (4.094237, 1.117350, -4.633268)
    orientation:      (w=0.577350, i=-0.577350, j=0.000000, k=0.577350)

Preparing first step: implicit scheme, no bootstrap passes required.
First step may take longer than later steps.

First step completed in 0.590 s.

Step   100/2000    5.0% | t 5.000 | ETA 12m 37s | step 0.41s | KE 8.7651 | drift +1.64% | fluid 6.8283 | solid 1.9368
  Impulse FP iterations last/mean/max 30/29.92/30
Step   200/2000   10.0% | t 10.000 | ETA 12m 5s | step 0.40s | KE 8.9611 | drift +3.91% | fluid 6.4436 | solid 2.5175
  Impulse FP iterations last/mean/max 30/29.93/30
Step   300/2000   15.0% | t 15.000 | ETA 11m 27s | step 0.42s | KE 9.0164 | drift +4.55% | fluid 6.8832 | solid 2.1332
  Impulse FP iterations last/mean/max 30/29.95/30
Step   400/2000   20.0% | t 20.000 | ETA 10m 49s | step 0.41s | KE 8.9983 | drift +4.34% | fluid 6.8856 | solid 2.1127
  Impulse FP iterations last/mean/max 30/29.96/30
Step   500/2000   25.0% | t 25.000 | ETA 10m 8s | step 0.42s | KE 8.9908 | drift +4.26% | fluid 7.0140 | solid 1.9768
  Impulse FP iterations last/mean/max 30/29.95/30
Step   600/2000   30.0% | t 30.000 | ETA 9m 27s | step 0.37s | KE 9.0930 | drift +5.44% | fluid 7.0920 | solid 2.0009
  Impulse FP iterations last/mean/max 30/29.95/30
Step   700/2000   35.0% | t 35.000 | ETA 8m 45s | step 0.41s | KE 9.3279 | drift +8.17% | fluid 7.1303 | solid 2.1976
  Impulse FP iterations last/mean/max 30/29.96/30
Step   800/2000   40.0% | t 40.000 | ETA 8m 4s | step 0.42s | KE 9.7646 | drift +13.23% | fluid 7.6173 | solid 2.1473
  Impulse FP iterations last/mean/max 30/29.95/30
Step   900/2000   45.0% | t 45.000 | ETA 7m 23s | step 0.40s | KE 10.2766 | drift +19.17% | fluid 7.5494 | solid 2.7271
  Impulse FP iterations last/mean/max 30/29.95/30
Step  1000/2000   50.0% | t 50.000 | ETA 6m 42s | step 0.35s | KE 10.8073 | drift +25.32% | fluid 7.7806 | solid 3.0267
  Impulse FP iterations last/mean/max 29/29.95/30
Step  1100/2000   55.0% | t 55.000 | ETA 6m 1s | step 0.41s | KE 11.1980 | drift +29.85% | fluid 8.5733 | solid 2.6248
  Impulse FP iterations last/mean/max 30/29.95/30
Step  1200/2000   60.0% | t 60.000 | ETA 5m 21s | step 0.40s | KE 11.4184 | drift +32.41% | fluid 8.9469 | solid 2.4715
  Impulse FP iterations last/mean/max 30/29.95/30
Step  1300/2000   65.0% | t 65.000 | ETA 4m 40s | step 0.44s | KE 11.5464 | drift +33.89% | fluid 9.2547 | solid 2.2918
  Impulse FP iterations last/mean/max 30/29.95/30
Step  1400/2000   70.0% | t 70.000 | ETA 4m 0s | step 0.37s | KE 11.5720 | drift +34.19% | fluid 9.0424 | solid 2.5296
  Impulse FP iterations last/mean/max 30/29.95/30
Step  1500/2000   75.0% | t 75.000 | ETA 3m 20s | step 0.36s | KE 11.5481 | drift +33.91% | fluid 9.1047 | solid 2.4434
  Impulse FP iterations last/mean/max 30/29.94/30
Step  1600/2000   80.0% | t 80.000 | ETA 2m 39s | step 0.40s | KE 11.5278 | drift +33.68% | fluid 9.1883 | solid 2.3395
  Impulse FP iterations last/mean/max 30/29.94/30
Step  1700/2000   85.0% | t 85.000 | ETA 1m 59s | step 0.39s | KE 11.5030 | drift +33.39% | fluid 8.8989 | solid 2.6041
  Impulse FP iterations last/mean/max 30/29.94/30
Step  1800/2000   90.0% | t 90.000 | ETA 1m 19s | step 0.35s | KE 11.4641 | drift +32.94% | fluid 8.8778 | solid 2.5862
  Impulse FP iterations last/mean/max 30/29.94/30
Step  1900/2000   95.0% | t 95.000 | ETA 39s | step 0.26s | KE 11.4375 | drift +32.63% | fluid 8.3852 | solid 3.0523
  Impulse FP iterations last/mean/max 30/29.94/30
Solver finished successfully - good job!
Results saved successfully.

================== Run summary ==================
  Bodies:            2
  Triangles / nodes: 256 / 516
  Timesteps:         2000  (dt = 0.05)
  Simulated time:    0 -> 100
  First-step setup:  0.590 s
  Mean time/step:    0.3871 s  (excl. first step)
  Total wall time:   12m 54s
  Impulse FP iters last/mean/max: 28 / 29.935 / 30
  Approx impulse solves/step:     29.935
  Impulse start cache hits/direct: 1999 / 1
  Impulse global drift P/H:       5.119520e-6 / 1.462060e-2
  Impulse per-body max drift P/H: 7.676749e-6 / 7.925122e-3
  CPU cores:         256 available, 8 Rayon worker thread(s)
  Started:           2026-06-22 20:15:39
  Finished:          2026-06-22 20:28:36
  Output file:       /work/e643/e643/shared/multi_ellip/studies/two_body_paper_sweeps/runs/ellipsoid_1_0p8_0p6/ellipsoid_1_0p8_0p6_rho0p03_E30_sep5_run02_impulse_noproj/multiple_body_complete.dat
================================================
