
================ Simulation setup ================
  Run label:         /work/e643/e643/shared/multi_ellip/studies/departing_sphericity_sweep/runs/spheroid_prolate/homogeneous/spheroid_prolate_homogeneous_eps0p0001_rho1_E0p5_sep8_run04_impulse_noproj/
  Started:           2026-06-24 02:23:11
  Input file:        /work/e643/e643/shared/multi_ellip/studies/departing_sphericity_sweep/runs/spheroid_prolate/homogeneous/spheroid_prolate_homogeneous_eps0p0001_rho1_E0p5_sep8_run04_impulse_noproj/input.txt
  Output file:       /work/e643/e643/shared/multi_ellip/studies/departing_sphericity_sweep/runs/spheroid_prolate/homogeneous/spheroid_prolate_homogeneous_eps0p0001_rho1_E0p5_sep8_run04_impulse_noproj/multiple_body_complete.dat
  Bodies:            2
  Fluid density:     1
  Mesh:              ndiv 2 -> 256 triangles / 516 nodes
  Simulated time:    0 -> 100  (dt = 0.05, ~2000 steps)
  Output cadence:    every 1 step(s)
  Output rows:       ~2001
  Progress cadence:  every 100 step(s)
  CPU cores:         256 available, 8 Rayon worker thread(s)
  Strong coupling:   disabled
  Impulse scheme:    enabled
  Hamiltonian step:  disabled
  Hamiltonian midpt: disabled
  Variational step:  disabled
  Energy projection: disabled
  Projection particular metric: Euclidean
  Fluid KE gradient: disabled  (eps = 0.001, scale = 1, linear = 1, angular = 1)
  Fluid KE discrete gradient: disabled
  Impulse pair metric correction: disabled  (mode = pair discrete-gradient, cutoff = all pairs, inner/outer = 0/0, eps = 0.001, linear scale = 1, angular scale = 0)
  Impulse metric correction: disabled  (internal load constraint = disabled)
  Impulse variational defect probe: disabled
  Impulse quadratic pressure: disabled  (scale = 1)
  Added-mass stab:   disabled
  Exact BEM geometry: disabled
  Exact singular BEM: disabled
  Legacy singular SLP diagnostic: disabled
  Phi-dot blend:     0 (off)

  Solver guidance:
    - Strong coupling: use for stiff close-coupled runs; slower but more implicit.
    - Impulse scheme: use when impulse/momentum conservation or KE drift is the focus. Recommended.
    - Added-mass stab: use for higher mesh counts (ndiv > 3) to preserve stability - deprecated.
================================================
Solver starting - good luck!

Initial state:
  Body  1
    density:          1.000000
    shape axes ratio: (1.000000, 0.999700, 0.999700)
    initial KE ratio: 0.500000
    position:         (-4.000000, 0.000000, 0.000000)
    velocity:         (-2.996944, 2.609208, -3.974298)
    angular velocity: (2.241059, -3.636112, 4.608119)
    orientation:      (w=0.105668, i=-0.140156, j=0.984394, k=-0.012620)
  Body  2
    density:          1.000000
    shape axes ratio: (1.000000, 0.999700, 0.999700)
    initial KE ratio: 0.500000
    position:         (4.000000, 0.000000, 0.000000)
    velocity:         (-2.996998, 2.609254, -3.974369)
    angular velocity: (-0.580435, 6.082577, -1.464162)
    orientation:      (w=0.687482, i=0.286144, j=-0.659056, k=0.105521)

Preparing first step: implicit scheme, no bootstrap passes required.
First step may take longer than later steps.

First step completed in 8.183 s.

Step   100/2000    5.0% | t 5.000 | ETA 2m 45s | step 0.08s | KE 277.8183 | drift +2.56% | fluid 72.4264 | solid 205.3919
  Impulse FP iterations last/mean/max 6/6.21/7
Step   200/2000   10.0% | t 10.000 | ETA 2m 37s | step 0.10s | KE 287.4146 | drift +6.10% | fluid 72.4242 | solid 214.9904
  Impulse FP iterations last/mean/max 7/6.25/7
Step   300/2000   15.0% | t 15.000 | ETA 2m 30s | step 0.09s | KE 299.6756 | drift +10.63% | fluid 72.4301 | solid 227.2455
  Impulse FP iterations last/mean/max 7/6.32/7
Step   400/2000   20.0% | t 20.000 | ETA 2m 23s | step 0.10s | KE 314.6122 | drift +16.14% | fluid 72.4278 | solid 242.1843
  Impulse FP iterations last/mean/max 7/6.39/7
Step   500/2000   25.0% | t 25.000 | ETA 2m 15s | step 0.10s | KE 332.2331 | drift +22.65% | fluid 72.4293 | solid 259.8038
  Impulse FP iterations last/mean/max 7/6.47/7
Step   600/2000   30.0% | t 30.000 | ETA 2m 8s | step 0.09s | KE 352.5487 | drift +30.15% | fluid 72.4249 | solid 280.1239
  Impulse FP iterations last/mean/max 7/6.54/7
Step   700/2000   35.0% | t 35.000 | ETA 2m 0s | step 0.10s | KE 375.5649 | drift +38.65% | fluid 72.4279 | solid 303.1370
  Impulse FP iterations last/mean/max 7/6.58/7
Step   800/2000   40.0% | t 40.000 | ETA 1m 51s | step 0.10s | KE 401.2947 | drift +48.15% | fluid 72.4276 | solid 328.8671
  Impulse FP iterations last/mean/max 7/6.63/7
Step   900/2000   45.0% | t 45.000 | ETA 1m 42s | step 0.10s | KE 429.7473 | drift +58.65% | fluid 72.4290 | solid 357.3183
  Impulse FP iterations last/mean/max 7/6.67/7
Step  1000/2000   50.0% | t 50.000 | ETA 1m 33s | step 0.10s | KE 460.9310 | drift +70.16% | fluid 72.4275 | solid 388.5035
  Impulse FP iterations last/mean/max 7/6.70/7
Step  1100/2000   55.0% | t 55.000 | ETA 1m 24s | step 0.09s | KE 494.8571 | drift +82.69% | fluid 72.4277 | solid 422.4294
  Impulse FP iterations last/mean/max 7/6.72/7
Step  1200/2000   60.0% | t 60.000 | ETA 1m 14s | step 0.09s | KE 531.5333 | drift +96.23% | fluid 72.4279 | solid 459.1054
  Impulse FP iterations last/mean/max 7/6.75/7
Step  1300/2000   65.0% | t 65.000 | ETA 1m 5s | step 0.09s | KE 570.9737 | drift +110.79% | fluid 72.4262 | solid 498.5474
  Impulse FP iterations last/mean/max 7/6.77/7
Step  1400/2000   70.0% | t 70.000 | ETA 56s | step 0.10s | KE 613.1839 | drift +126.37% | fluid 72.4237 | solid 540.7603
  Impulse FP iterations last/mean/max 7/6.78/7
Step  1500/2000   75.0% | t 75.000 | ETA 47s | step 0.09s | KE 658.1783 | drift +142.98% | fluid 72.4223 | solid 585.7560
  Impulse FP iterations last/mean/max 7/6.79/7
Step  1600/2000   80.0% | t 80.000 | ETA 37s | step 0.09s | KE 705.9582 | drift +160.62% | fluid 72.4292 | solid 633.5290
  Impulse FP iterations last/mean/max 7/6.81/7
Step  1700/2000   85.0% | t 85.000 | ETA 28s | step 0.08s | KE 756.5503 | drift +179.29% | fluid 72.4226 | solid 684.1277
  Impulse FP iterations last/mean/max 7/6.82/7
Step  1800/2000   90.0% | t 90.000 | ETA 18s | step 0.07s | KE 809.9444 | drift +199.01% | fluid 72.4286 | solid 737.5158
  Impulse FP iterations last/mean/max 7/6.83/7
Step  1900/2000   95.0% | t 95.000 | ETA 9s | step 0.07s | KE 866.1707 | drift +219.76% | fluid 72.4245 | solid 793.7462
  Impulse FP iterations last/mean/max 7/6.83/7
Solver finished successfully - good job!
Results saved successfully.

================== Run summary ==================
  Bodies:            2
  Triangles / nodes: 256 / 516
  Timesteps:         2000  (dt = 0.05)
  Simulated time:    0 -> 100
  First-step setup:  8.183 s
  Mean time/step:    0.0906 s  (excl. first step)
  Total wall time:   3m 9s
  Impulse FP iters last/mean/max: 7 / 6.843 / 7
  Approx impulse solves/step:     6.843
  Impulse start cache hits/direct: 1999 / 1
  Impulse global drift P/H:       3.160969e-9 / 8.381642e-2
  Impulse per-body max drift P/H: 5.051699e-9 / 5.070760e-3
  CPU cores:         256 available, 8 Rayon worker thread(s)
  Started:           2026-06-24 02:23:11
  Finished:          2026-06-24 02:26:21
  Output file:       /work/e643/e643/shared/multi_ellip/studies/departing_sphericity_sweep/runs/spheroid_prolate/homogeneous/spheroid_prolate_homogeneous_eps0p0001_rho1_E0p5_sep8_run04_impulse_noproj/multiple_body_complete.dat
================================================
