
================ Simulation setup ================
  Run label:         /work/e643/e643/shared/multi_ellip/studies/two_body_paper_sweeps/runs/spheroid_1_0p7_0p7/spheroid_1_0p7_0p7_rho0p1_E1p5_sep11_run01_impulse_noproj/
  Started:           2026-06-22 19:52:05
  Input file:        /work/e643/e643/shared/multi_ellip/studies/two_body_paper_sweeps/runs/spheroid_1_0p7_0p7/spheroid_1_0p7_0p7_rho0p1_E1p5_sep11_run01_impulse_noproj/input.txt
  Output file:       /work/e643/e643/shared/multi_ellip/studies/two_body_paper_sweeps/runs/spheroid_1_0p7_0p7/spheroid_1_0p7_0p7_rho0p1_E1p5_sep11_run01_impulse_noproj/multiple_body_complete.dat
  Bodies:            2
  Fluid density:     1
  Mesh:              ndiv 2 -> 256 triangles / 516 nodes
  Simulated time:    0 -> 100  (dt = 0.05, ~2000 steps)
  Output cadence:    every 1 step(s)
  Output rows:       ~2001
  Progress cadence:  every 100 step(s)
  CPU cores:         256 available, 8 Rayon worker thread(s)
  Strong coupling:   disabled
  Impulse scheme:    enabled
  Hamiltonian step:  disabled
  Hamiltonian midpt: disabled
  Variational step:  disabled
  Energy projection: disabled
  Projection particular metric: Euclidean
  Fluid KE gradient: disabled  (eps = 0.001, scale = 1, linear = 1, angular = 1)
  Fluid KE discrete gradient: disabled
  Impulse pair metric correction: disabled  (mode = pair discrete-gradient, cutoff = all pairs, inner/outer = 0/0, eps = 0.001, linear scale = 1, angular scale = 0)
  Impulse metric correction: disabled  (internal load constraint = disabled)
  Impulse variational defect probe: disabled
  Impulse quadratic pressure: disabled  (scale = 1)
  Added-mass stab:   disabled
  Exact BEM geometry: disabled
  Exact singular BEM: disabled
  Legacy singular SLP diagnostic: disabled
  Phi-dot blend:     0 (off)

  Solver guidance:
    - Strong coupling: use for stiff close-coupled runs; slower but more implicit.
    - Impulse scheme: use when impulse/momentum conservation or KE drift is the focus. Recommended.
    - Added-mass stab: use for higher mesh counts (ndiv > 3) to preserve stability - deprecated.
================================================
Solver starting - good luck!

Initial state:
  Body  1
    density:          0.100000
    shape axes ratio: (1.000000, 0.700000, 0.700000)
    initial KE ratio: 1.500000
    position:         (-5.500000, 0.000000, 0.000000)
    velocity:         (-3.165521, -1.523061, 0.420818)
    angular velocity: (-0.963422, -6.110830, 1.099090)
    orientation:      (w=0.447214, i=0.894427, j=0.000000, k=0.000000)
  Body  2
    density:          0.100000
    shape axes ratio: (1.000000, 0.700000, 0.700000)
    initial KE ratio: 1.500000
    position:         (5.500000, 0.000000, 0.000000)
    velocity:         (-3.082190, -1.482966, 0.409740)
    angular velocity: (-2.621554, 5.708706, -0.128632)
    orientation:      (w=0.707107, i=0.000000, j=0.707107, k=0.000000)

Preparing first step: implicit scheme, no bootstrap passes required.
First step may take longer than later steps.

First step completed in 0.431 s.

Step   100/2000    5.0% | t 5.000 | ETA 6m 53s | step 0.23s | KE 53.5793 | drift +14.70% | fluid 35.9772 | solid 17.6021
  Impulse FP iterations last/mean/max 16/15.14/17
Step   200/2000   10.0% | t 10.000 | ETA 7m 17s | step 0.24s | KE 223.7616 | drift +379.00% | fluid 103.6805 | solid 120.0811
  Impulse FP iterations last/mean/max 18/16.98/22
Step   300/2000   15.0% | t 15.000 | ETA 6m 58s | step 0.26s | KE 209.4690 | drift +348.40% | fluid 97.6272 | solid 111.8418
  Impulse FP iterations last/mean/max 17/17.27/22
Step   400/2000   20.0% | t 20.000 | ETA 6m 35s | step 0.22s | KE 208.1465 | drift +345.57% | fluid 96.9020 | solid 111.2445
  Impulse FP iterations last/mean/max 18/17.41/22
Step   500/2000   25.0% | t 25.000 | ETA 6m 10s | step 0.24s | KE 207.8453 | drift +344.93% | fluid 96.7082 | solid 111.1371
  Impulse FP iterations last/mean/max 17/17.49/22
Step   600/2000   30.0% | t 30.000 | ETA 5m 44s | step 0.25s | KE 207.6898 | drift +344.60% | fluid 96.7231 | solid 110.9667
  Impulse FP iterations last/mean/max 17/17.53/22
Step   700/2000   35.0% | t 35.000 | ETA 5m 20s | step 0.26s | KE 207.7747 | drift +344.78% | fluid 97.1047 | solid 110.6700
  Impulse FP iterations last/mean/max 18/17.56/22
Step   800/2000   40.0% | t 40.000 | ETA 4m 55s | step 0.26s | KE 207.7362 | drift +344.70% | fluid 97.3860 | solid 110.3502
  Impulse FP iterations last/mean/max 18/17.59/22
Step   900/2000   45.0% | t 45.000 | ETA 4m 31s | step 0.25s | KE 207.2860 | drift +343.73% | fluid 97.1614 | solid 110.1247
  Impulse FP iterations last/mean/max 18/17.62/22
Step  1000/2000   50.0% | t 50.000 | ETA 4m 6s | step 0.25s | KE 206.5365 | drift +342.13% | fluid 96.4985 | solid 110.0380
  Impulse FP iterations last/mean/max 18/17.64/22
Step  1100/2000   55.0% | t 55.000 | ETA 3m 41s | step 0.25s | KE 205.7540 | drift +340.45% | fluid 95.6763 | solid 110.0778
  Impulse FP iterations last/mean/max 18/17.65/22
Step  1200/2000   60.0% | t 60.000 | ETA 3m 16s | step 0.25s | KE 205.2752 | drift +339.43% | fluid 95.0653 | solid 110.2099
  Impulse FP iterations last/mean/max 18/17.66/22
Step  1300/2000   65.0% | t 65.000 | ETA 2m 52s | step 0.28s | KE 205.4658 | drift +339.84% | fluid 95.0605 | solid 110.4053
  Impulse FP iterations last/mean/max 19/17.68/22
Step  1400/2000   70.0% | t 70.000 | ETA 2m 27s | step 0.27s | KE 206.4520 | drift +341.95% | fluid 95.8076 | solid 110.6444
  Impulse FP iterations last/mean/max 20/17.69/22
Step  1500/2000   75.0% | t 75.000 | ETA 2m 2s | step 0.22s | KE 207.9413 | drift +345.13% | fluid 97.0328 | solid 110.9085
  Impulse FP iterations last/mean/max 18/17.68/22
Step  1600/2000   80.0% | t 80.000 | ETA 1m 37s | step 0.22s | KE 209.4376 | drift +348.34% | fluid 98.2469 | solid 111.1906
  Impulse FP iterations last/mean/max 18/17.69/22
Step  1700/2000   85.0% | t 85.000 | ETA 1m 12s | step 0.22s | KE 210.5311 | drift +350.68% | fluid 99.0391 | solid 111.4920
  Impulse FP iterations last/mean/max 18/17.70/22
Step  1800/2000   90.0% | t 90.000 | ETA 47s | step 0.18s | KE 211.0304 | drift +351.75% | fluid 99.2333 | solid 111.7971
  Impulse FP iterations last/mean/max 18/17.70/22
Step  1900/2000   95.0% | t 95.000 | ETA 23s | step 0.16s | KE 211.0130 | drift +351.71% | fluid 98.9477 | solid 112.0653
  Impulse FP iterations last/mean/max 18/17.71/22
Solver finished successfully - good job!
Results saved successfully.

================== Run summary ==================
  Bodies:            2
  Triangles / nodes: 256 / 516
  Timesteps:         2000  (dt = 0.05)
  Simulated time:    0 -> 100
  First-step setup:  0.431 s
  Mean time/step:    0.2316 s  (excl. first step)
  Total wall time:   7m 43s
  Impulse FP iters last/mean/max: 18 / 17.709 / 22
  Approx impulse solves/step:     17.709
  Impulse start cache hits/direct: 1999 / 1
  Impulse global drift P/H:       9.878904e-8 / 3.459556e-1
  Impulse per-body max drift P/H: 1.106058e-7 / 3.203462e-2
  CPU cores:         256 available, 8 Rayon worker thread(s)
  Started:           2026-06-22 19:52:05
  Finished:          2026-06-22 19:59:48
  Output file:       /work/e643/e643/shared/multi_ellip/studies/two_body_paper_sweeps/runs/spheroid_1_0p7_0p7/spheroid_1_0p7_0p7_rho0p1_E1p5_sep11_run01_impulse_noproj/multiple_body_complete.dat
================================================
