
================ Simulation setup ================
  Run label:         /work/e643/e643/shared/multi_ellip/studies/two_body_paper_sweeps/runs/ellipsoid_1_0p8_0p6/ellipsoid_1_0p8_0p6_rho0p3_E0p55_sep8_run04_impulse_noproj/
  Started:           2026-06-24 01:51:03
  Input file:        /work/e643/e643/shared/multi_ellip/studies/two_body_paper_sweeps/runs/ellipsoid_1_0p8_0p6/ellipsoid_1_0p8_0p6_rho0p3_E0p55_sep8_run04_impulse_noproj/input.txt
  Output file:       /work/e643/e643/shared/multi_ellip/studies/two_body_paper_sweeps/runs/ellipsoid_1_0p8_0p6/ellipsoid_1_0p8_0p6_rho0p3_E0p55_sep8_run04_impulse_noproj/multiple_body_complete.dat
  Bodies:            2
  Fluid density:     1
  Mesh:              ndiv 2 -> 256 triangles / 516 nodes
  Simulated time:    0 -> 100  (dt = 0.05, ~2000 steps)
  Output cadence:    every 1 step(s)
  Output rows:       ~2001
  Progress cadence:  every 100 step(s)
  CPU cores:         256 available, 8 Rayon worker thread(s)
  Strong coupling:   disabled
  Impulse scheme:    enabled
  Hamiltonian step:  disabled
  Hamiltonian midpt: disabled
  Variational step:  disabled
  Energy projection: disabled
  Projection particular metric: Euclidean
  Fluid KE gradient: disabled  (eps = 0.001, scale = 1, linear = 1, angular = 1)
  Fluid KE discrete gradient: disabled
  Impulse pair metric correction: disabled  (mode = pair discrete-gradient, cutoff = all pairs, inner/outer = 0/0, eps = 0.001, linear scale = 1, angular scale = 0)
  Impulse metric correction: disabled  (internal load constraint = disabled)
  Impulse variational defect probe: disabled
  Impulse quadratic pressure: disabled  (scale = 1)
  Added-mass stab:   disabled
  Exact BEM geometry: disabled
  Exact singular BEM: disabled
  Legacy singular SLP diagnostic: disabled
  Phi-dot blend:     0 (off)

  Solver guidance:
    - Strong coupling: use for stiff close-coupled runs; slower but more implicit.
    - Impulse scheme: use when impulse/momentum conservation or KE drift is the focus. Recommended.
    - Added-mass stab: use for higher mesh counts (ndiv > 3) to preserve stability - deprecated.
================================================
Solver starting - good luck!

Initial state:
  Body  1
    density:          0.300000
    shape axes ratio: (1.000000, 0.800000, 0.600000)
    initial KE ratio: 0.550000
    position:         (-4.000000, 0.000000, 0.000000)
    velocity:         (-1.680620, 5.109002, 2.698518)
    angular velocity: (2.283340, -1.141504, -5.741232)
    orientation:      (w=0.647892, i=0.127029, j=-0.715532, k=-0.228283)
  Body  2
    density:          0.300000
    shape axes ratio: (1.000000, 0.800000, 0.600000)
    initial KE ratio: 0.550000
    position:         (4.000000, 0.000000, 0.000000)
    velocity:         (-1.530574, 4.652869, 2.457594)
    angular velocity: (4.563730, 1.674599, 3.980767)
    orientation:      (w=0.058433, i=0.620592, j=-0.780272, k=0.051257)

Preparing first step: implicit scheme, no bootstrap passes required.
First step may take longer than later steps.

First step completed in 0.354 s.

Step   100/2000    5.0% | t 5.000 | ETA 6m 34s | step 0.21s | KE 146.5472 | drift -0.47% | fluid 82.6384 | solid 63.9088
  Impulse FP iterations last/mean/max 15/14.65/16
Step   200/2000   10.0% | t 10.000 | ETA 6m 12s | step 0.20s | KE 146.6517 | drift -0.39% | fluid 85.3678 | solid 61.2839
  Impulse FP iterations last/mean/max 15/14.63/16
Step   300/2000   15.0% | t 15.000 | ETA 5m 51s | step 0.22s | KE 147.0828 | drift -0.10% | fluid 84.3934 | solid 62.6894
  Impulse FP iterations last/mean/max 16/14.68/16
Step   400/2000   20.0% | t 20.000 | ETA 5m 30s | step 0.20s | KE 147.3044 | drift +0.05% | fluid 84.3015 | solid 63.0029
  Impulse FP iterations last/mean/max 14/14.68/16
Step   500/2000   25.0% | t 25.000 | ETA 5m 9s | step 0.22s | KE 146.5189 | drift -0.48% | fluid 81.6157 | solid 64.9032
  Impulse FP iterations last/mean/max 15/14.68/16
Step   600/2000   30.0% | t 30.000 | ETA 4m 48s | step 0.21s | KE 146.9915 | drift -0.16% | fluid 85.3828 | solid 61.6086
  Impulse FP iterations last/mean/max 15/14.67/16
Step   700/2000   35.0% | t 35.000 | ETA 4m 28s | step 0.20s | KE 147.0654 | drift -0.11% | fluid 80.1671 | solid 66.8983
  Impulse FP iterations last/mean/max 14/14.70/17
Step   800/2000   40.0% | t 40.000 | ETA 4m 8s | step 0.18s | KE 147.4001 | drift +0.11% | fluid 86.2209 | solid 61.1792
  Impulse FP iterations last/mean/max 13/14.68/17
Step   900/2000   45.0% | t 45.000 | ETA 3m 47s | step 0.19s | KE 147.4958 | drift +0.18% | fluid 83.9671 | solid 63.5287
  Impulse FP iterations last/mean/max 14/14.68/17
Step  1000/2000   50.0% | t 50.000 | ETA 3m 27s | step 0.23s | KE 147.0672 | drift -0.11% | fluid 83.9067 | solid 63.1605
  Impulse FP iterations last/mean/max 16/14.69/17
Step  1100/2000   55.0% | t 55.000 | ETA 3m 6s | step 0.19s | KE 146.1345 | drift -0.75% | fluid 83.5684 | solid 62.5661
  Impulse FP iterations last/mean/max 14/14.67/17
Step  1200/2000   60.0% | t 60.000 | ETA 2m 45s | step 0.20s | KE 146.4026 | drift -0.56% | fluid 83.3821 | solid 63.0204
  Impulse FP iterations last/mean/max 15/14.67/17
Step  1300/2000   65.0% | t 65.000 | ETA 2m 24s | step 0.21s | KE 146.6556 | drift -0.39% | fluid 84.6648 | solid 61.9908
  Impulse FP iterations last/mean/max 15/14.67/17
Step  1400/2000   70.0% | t 70.000 | ETA 2m 4s | step 0.20s | KE 146.5353 | drift -0.47% | fluid 81.4434 | solid 65.0919
  Impulse FP iterations last/mean/max 15/14.67/17
Step  1500/2000   75.0% | t 75.000 | ETA 1m 43s | step 0.19s | KE 147.1412 | drift -0.06% | fluid 84.2348 | solid 62.9065
  Impulse FP iterations last/mean/max 14/14.68/17
Step  1600/2000   80.0% | t 80.000 | ETA 1m 22s | step 0.21s | KE 146.6538 | drift -0.39% | fluid 81.6435 | solid 65.0104
  Impulse FP iterations last/mean/max 15/14.69/17
Step  1700/2000   85.0% | t 85.000 | ETA 1m 2s | step 0.21s | KE 146.5922 | drift -0.43% | fluid 79.8002 | solid 66.7920
  Impulse FP iterations last/mean/max 15/14.69/17
Step  1800/2000   90.0% | t 90.000 | ETA 41s | step 0.22s | KE 146.6167 | drift -0.42% | fluid 82.8573 | solid 63.7594
  Impulse FP iterations last/mean/max 16/14.69/17
Step  1900/2000   95.0% | t 95.000 | ETA 20s | step 0.20s | KE 147.2066 | drift -0.02% | fluid 82.3184 | solid 64.8883
  Impulse FP iterations last/mean/max 14/14.69/17
Solver finished successfully - good job!
Results saved successfully.

================== Run summary ==================
  Bodies:            2
  Triangles / nodes: 256 / 516
  Timesteps:         2000  (dt = 0.05)
  Simulated time:    0 -> 100
  First-step setup:  0.354 s
  Mean time/step:    0.2058 s  (excl. first step)
  Total wall time:   6m 51s
  Impulse FP iters last/mean/max: 15 / 14.683 / 17
  Approx impulse solves/step:     14.684
  Impulse start cache hits/direct: 1999 / 1
  Impulse global drift P/H:       1.933390e-8 / 2.271503e-2
  Impulse per-body max drift P/H: 2.798322e-8 / 7.366798e-3
  CPU cores:         256 available, 8 Rayon worker thread(s)
  Started:           2026-06-24 01:51:03
  Finished:          2026-06-24 01:57:55
  Output file:       /work/e643/e643/shared/multi_ellip/studies/two_body_paper_sweeps/runs/ellipsoid_1_0p8_0p6/ellipsoid_1_0p8_0p6_rho0p3_E0p55_sep8_run04_impulse_noproj/multiple_body_complete.dat
================================================
