
================ Simulation setup ================
  Run label:         /work/e643/e643/shared/multi_ellip/studies/departing_sphericity_sweep/runs/spheroid_oblate/homogeneous/spheroid_oblate_homogeneous_eps0p001_rho1_E0p5_sep8_run08_impulse_noproj/
  Started:           2026-06-24 02:26:24
  Input file:        /work/e643/e643/shared/multi_ellip/studies/departing_sphericity_sweep/runs/spheroid_oblate/homogeneous/spheroid_oblate_homogeneous_eps0p001_rho1_E0p5_sep8_run08_impulse_noproj/input.txt
  Output file:       /work/e643/e643/shared/multi_ellip/studies/departing_sphericity_sweep/runs/spheroid_oblate/homogeneous/spheroid_oblate_homogeneous_eps0p001_rho1_E0p5_sep8_run08_impulse_noproj/multiple_body_complete.dat
  Bodies:            2
  Fluid density:     1
  Mesh:              ndiv 2 -> 256 triangles / 516 nodes
  Simulated time:    0 -> 100  (dt = 0.05, ~2000 steps)
  Output cadence:    every 1 step(s)
  Output rows:       ~2001
  Progress cadence:  every 100 step(s)
  CPU cores:         256 available, 8 Rayon worker thread(s)
  Strong coupling:   disabled
  Impulse scheme:    enabled
  Hamiltonian step:  disabled
  Hamiltonian midpt: disabled
  Variational step:  disabled
  Energy projection: disabled
  Projection particular metric: Euclidean
  Fluid KE gradient: disabled  (eps = 0.001, scale = 1, linear = 1, angular = 1)
  Fluid KE discrete gradient: disabled
  Impulse pair metric correction: disabled  (mode = pair discrete-gradient, cutoff = all pairs, inner/outer = 0/0, eps = 0.001, linear scale = 1, angular scale = 0)
  Impulse metric correction: disabled  (internal load constraint = disabled)
  Impulse variational defect probe: disabled
  Impulse quadratic pressure: disabled  (scale = 1)
  Added-mass stab:   disabled
  Exact BEM geometry: disabled
  Exact singular BEM: disabled
  Legacy singular SLP diagnostic: disabled
  Phi-dot blend:     0 (off)

  Solver guidance:
    - Strong coupling: use for stiff close-coupled runs; slower but more implicit.
    - Impulse scheme: use when impulse/momentum conservation or KE drift is the focus. Recommended.
    - Added-mass stab: use for higher mesh counts (ndiv > 3) to preserve stability - deprecated.
================================================
Solver starting - good luck!

Initial state:
  Body  1
    density:          1.000000
    shape axes ratio: (1.000000, 1.000000, 0.997006)
    initial KE ratio: 0.500000
    position:         (-4.000000, 0.000000, 0.000000)
    velocity:         (3.193729, -3.530506, 2.986415)
    angular velocity: (-0.629451, -5.083610, -3.638561)
    orientation:      (w=-0.054132, i=-0.651274, j=0.262945, k=-0.709769)
  Body  2
    density:          1.000000
    shape axes ratio: (1.000000, 1.000000, 0.997006)
    initial KE ratio: 0.500000
    position:         (4.000000, 0.000000, 0.000000)
    velocity:         (3.193330, -3.530066, 2.986043)
    angular velocity: (-0.146982, 5.431673, -3.154956)
    orientation:      (w=0.241602, i=0.064460, j=-0.517047, k=0.818618)

Preparing first step: implicit scheme, no bootstrap passes required.
First step may take longer than later steps.

First step completed in 0.225 s.

Step   100/2000    5.0% | t 5.000 | ETA 3m 18s | step 0.10s | KE 265.0229 | drift -2.19% | fluid 72.4925 | solid 192.5304
  Impulse FP iterations last/mean/max 8/8.00/8
Step   200/2000   10.0% | t 10.000 | ETA 3m 8s | step 0.11s | KE 262.5535 | drift -3.10% | fluid 72.5023 | solid 190.0513
  Impulse FP iterations last/mean/max 8/8.00/8
Step   300/2000   15.0% | t 15.000 | ETA 2m 58s | step 0.11s | KE 263.5122 | drift -2.74% | fluid 72.4560 | solid 191.0562
  Impulse FP iterations last/mean/max 8/7.99/8
Step   400/2000   20.0% | t 20.000 | ETA 2m 46s | step 0.09s | KE 267.8768 | drift -1.13% | fluid 72.4440 | solid 195.4328
  Impulse FP iterations last/mean/max 7/7.92/8
Step   500/2000   25.0% | t 25.000 | ETA 2m 33s | step 0.09s | KE 275.6414 | drift +1.73% | fluid 72.4766 | solid 203.1649
  Impulse FP iterations last/mean/max 7/7.78/8
Step   600/2000   30.0% | t 30.000 | ETA 2m 21s | step 0.09s | KE 286.8162 | drift +5.86% | fluid 72.4359 | solid 214.3803
  Impulse FP iterations last/mean/max 7/7.65/8
Step   700/2000   35.0% | t 35.000 | ETA 2m 9s | step 0.10s | KE 301.3567 | drift +11.22% | fluid 72.4332 | solid 228.9235
  Impulse FP iterations last/mean/max 7/7.56/8
Step   800/2000   40.0% | t 40.000 | ETA 1m 58s | step 0.09s | KE 319.4192 | drift +17.89% | fluid 72.4226 | solid 246.9967
  Impulse FP iterations last/mean/max 7/7.49/8
Step   900/2000   45.0% | t 45.000 | ETA 1m 48s | step 0.10s | KE 341.2031 | drift +25.93% | fluid 72.4455 | solid 268.7576
  Impulse FP iterations last/mean/max 7/7.45/8
Step  1000/2000   50.0% | t 50.000 | ETA 1m 38s | step 0.11s | KE 366.9628 | drift +35.44% | fluid 72.4189 | solid 294.5439
  Impulse FP iterations last/mean/max 8/7.47/8
Step  1100/2000   55.0% | t 55.000 | ETA 1m 28s | step 0.09s | KE 396.9359 | drift +46.50% | fluid 72.4385 | solid 324.4974
  Impulse FP iterations last/mean/max 8/7.51/8
Step  1200/2000   60.0% | t 60.000 | ETA 1m 18s | step 0.10s | KE 431.3497 | drift +59.20% | fluid 72.4190 | solid 358.9306
  Impulse FP iterations last/mean/max 8/7.55/8
Step  1300/2000   65.0% | t 65.000 | ETA 1m 9s | step 0.10s | KE 470.4165 | drift +73.62% | fluid 72.4567 | solid 397.9598
  Impulse FP iterations last/mean/max 8/7.59/8
Step  1400/2000   70.0% | t 70.000 | ETA 59s | step 0.10s | KE 514.3748 | drift +89.84% | fluid 72.4296 | solid 441.9452
  Impulse FP iterations last/mean/max 8/7.62/8
Step  1500/2000   75.0% | t 75.000 | ETA 49s | step 0.10s | KE 563.4459 | drift +107.96% | fluid 72.4114 | solid 491.0345
  Impulse FP iterations last/mean/max 8/7.64/8
Step  1600/2000   80.0% | t 80.000 | ETA 39s | step 0.11s | KE 617.8539 | drift +128.04% | fluid 72.4258 | solid 545.4281
  Impulse FP iterations last/mean/max 8/7.66/8
Step  1700/2000   85.0% | t 85.000 | ETA 30s | step 0.11s | KE 677.8368 | drift +150.17% | fluid 72.4518 | solid 605.3849
  Impulse FP iterations last/mean/max 8/7.68/8
Step  1800/2000   90.0% | t 90.000 | ETA 20s | step 0.10s | KE 743.6514 | drift +174.46% | fluid 72.4490 | solid 671.2024
  Impulse FP iterations last/mean/max 8/7.70/8
Step  1900/2000   95.0% | t 95.000 | ETA 10s | step 0.10s | KE 815.5541 | drift +201.00% | fluid 72.4088 | solid 743.1453
  Impulse FP iterations last/mean/max 8/7.72/8
Solver finished successfully - good job!
Results saved successfully.

================== Run summary ==================
  Bodies:            2
  Triangles / nodes: 256 / 516
  Timesteps:         2000  (dt = 0.05)
  Simulated time:    0 -> 100
  First-step setup:  0.225 s
  Mean time/step:    0.1008 s  (excl. first step)
  Total wall time:   3m 21s
  Impulse FP iters last/mean/max: 8 / 7.731 / 8
  Approx impulse solves/step:     7.731
  Impulse start cache hits/direct: 1999 / 1
  Impulse global drift P/H:       3.128329e-9 / 8.436464e-2
  Impulse per-body max drift P/H: 6.172332e-9 / 8.631433e-3
  CPU cores:         256 available, 8 Rayon worker thread(s)
  Started:           2026-06-24 02:26:24
  Finished:          2026-06-24 02:29:46
  Output file:       /work/e643/e643/shared/multi_ellip/studies/departing_sphericity_sweep/runs/spheroid_oblate/homogeneous/spheroid_oblate_homogeneous_eps0p001_rho1_E0p5_sep8_run08_impulse_noproj/multiple_body_complete.dat
================================================
