
================ Simulation setup ================
  Run label:         /work/e643/e643/shared/multi_ellip/studies/departing_sphericity_sweep/runs/spheroid_prolate/homogeneous/spheroid_prolate_homogeneous_eps0_rho1_E0p5_sep8_run06_impulse_noproj/
  Started:           2026-06-24 02:23:10
  Input file:        /work/e643/e643/shared/multi_ellip/studies/departing_sphericity_sweep/runs/spheroid_prolate/homogeneous/spheroid_prolate_homogeneous_eps0_rho1_E0p5_sep8_run06_impulse_noproj/input.txt
  Output file:       /work/e643/e643/shared/multi_ellip/studies/departing_sphericity_sweep/runs/spheroid_prolate/homogeneous/spheroid_prolate_homogeneous_eps0_rho1_E0p5_sep8_run06_impulse_noproj/multiple_body_complete.dat
  Bodies:            2
  Fluid density:     1
  Mesh:              ndiv 2 -> 256 triangles / 516 nodes
  Simulated time:    0 -> 100  (dt = 0.05, ~2000 steps)
  Output cadence:    every 1 step(s)
  Output rows:       ~2001
  Progress cadence:  every 100 step(s)
  CPU cores:         256 available, 8 Rayon worker thread(s)
  Strong coupling:   disabled
  Impulse scheme:    enabled
  Hamiltonian step:  disabled
  Hamiltonian midpt: disabled
  Variational step:  disabled
  Energy projection: disabled
  Projection particular metric: Euclidean
  Fluid KE gradient: disabled  (eps = 0.001, scale = 1, linear = 1, angular = 1)
  Fluid KE discrete gradient: disabled
  Impulse pair metric correction: disabled  (mode = pair discrete-gradient, cutoff = all pairs, inner/outer = 0/0, eps = 0.001, linear scale = 1, angular scale = 0)
  Impulse metric correction: disabled  (internal load constraint = disabled)
  Impulse variational defect probe: disabled
  Impulse quadratic pressure: disabled  (scale = 1)
  Added-mass stab:   disabled
  Exact BEM geometry: disabled
  Exact singular BEM: disabled
  Legacy singular SLP diagnostic: disabled
  Phi-dot blend:     0 (off)

  Solver guidance:
    - Strong coupling: use for stiff close-coupled runs; slower but more implicit.
    - Impulse scheme: use when impulse/momentum conservation or KE drift is the focus. Recommended.
    - Added-mass stab: use for higher mesh counts (ndiv > 3) to preserve stability - deprecated.
================================================
Solver starting - good luck!

Initial state:
  Body  1
    density:          1.000000
    shape axes ratio: (1.000000, 1.000000, 1.000000)
    initial KE ratio: 0.500000
    position:         (-4.000000, 0.000000, 0.000000)
    velocity:         (1.095507, 3.983295, -3.809982)
    angular velocity: (0.897499, 5.582845, -2.739481)
    orientation:      (w=0.481774, i=-0.106713, j=0.416081, k=0.763795)
  Body  2
    density:          1.000000
    shape axes ratio: (1.000000, 1.000000, 1.000000)
    initial KE ratio: 0.500000
    position:         (4.000000, 0.000000, 0.000000)
    velocity:         (1.095507, 3.983295, -3.809982)
    angular velocity: (-1.580311, 5.888461, 1.518899)
    orientation:      (w=0.841644, i=0.288593, j=-0.289559, k=0.352853)

Preparing first step: implicit scheme, no bootstrap passes required.
First step may take longer than later steps.

First step completed in 9.215 s.

Step   100/2000    5.0% | t 5.000 | ETA 2m 14s | step 0.07s | KE 266.8168 | drift -1.55% | fluid 72.5876 | solid 194.2292
  Impulse FP iterations last/mean/max 5/5.00/5
Step   200/2000   10.0% | t 10.000 | ETA 2m 6s | step 0.07s | KE 263.0776 | drift -2.93% | fluid 72.5876 | solid 190.4899
  Impulse FP iterations last/mean/max 5/5.00/5
Step   300/2000   15.0% | t 15.000 | ETA 1m 59s | step 0.07s | KE 259.8102 | drift -4.14% | fluid 72.5876 | solid 187.2226
  Impulse FP iterations last/mean/max 5/5.00/5
Step   400/2000   20.0% | t 20.000 | ETA 1m 52s | step 0.07s | KE 257.0144 | drift -5.17% | fluid 72.5876 | solid 184.4268
  Impulse FP iterations last/mean/max 5/5.00/5
Step   500/2000   25.0% | t 25.000 | ETA 1m 45s | step 0.07s | KE 254.6905 | drift -6.03% | fluid 72.5876 | solid 182.1028
  Impulse FP iterations last/mean/max 5/5.00/5
Step   600/2000   30.0% | t 30.000 | ETA 1m 38s | step 0.07s | KE 252.8383 | drift -6.71% | fluid 72.5876 | solid 180.2507
  Impulse FP iterations last/mean/max 5/5.00/5
Step   700/2000   35.0% | t 35.000 | ETA 1m 31s | step 0.07s | KE 251.4578 | drift -7.22% | fluid 72.5876 | solid 178.8702
  Impulse FP iterations last/mean/max 5/5.00/5
Step   800/2000   40.0% | t 40.000 | ETA 1m 24s | step 0.07s | KE 250.5491 | drift -7.56% | fluid 72.5876 | solid 177.9615
  Impulse FP iterations last/mean/max 5/5.00/5
Step   900/2000   45.0% | t 45.000 | ETA 1m 17s | step 0.07s | KE 250.1121 | drift -7.72% | fluid 72.5876 | solid 177.5245
  Impulse FP iterations last/mean/max 5/5.00/5
Step  1000/2000   50.0% | t 50.000 | ETA 1m 10s | step 0.07s | KE 250.1468 | drift -7.70% | fluid 72.5876 | solid 177.5592
  Impulse FP iterations last/mean/max 5/5.00/5
Step  1100/2000   55.0% | t 55.000 | ETA 1m 3s | step 0.07s | KE 250.6532 | drift -7.52% | fluid 72.5876 | solid 178.0656
  Impulse FP iterations last/mean/max 5/5.00/5
Step  1200/2000   60.0% | t 60.000 | ETA 56s | step 0.07s | KE 251.6312 | drift -7.16% | fluid 72.5876 | solid 179.0436
  Impulse FP iterations last/mean/max 5/5.00/5
Step  1300/2000   65.0% | t 65.000 | ETA 49s | step 0.07s | KE 253.0809 | drift -6.62% | fluid 72.5876 | solid 180.4933
  Impulse FP iterations last/mean/max 5/5.00/5
Step  1400/2000   70.0% | t 70.000 | ETA 42s | step 0.07s | KE 255.0022 | drift -5.91% | fluid 72.5876 | solid 182.4145
  Impulse FP iterations last/mean/max 5/5.00/5
Step  1500/2000   75.0% | t 75.000 | ETA 35s | step 0.07s | KE 257.3952 | drift -5.03% | fluid 72.5876 | solid 184.8076
  Impulse FP iterations last/mean/max 5/5.00/5
Step  1600/2000   80.0% | t 80.000 | ETA 27s | step 0.06s | KE 260.2599 | drift -3.97% | fluid 72.5876 | solid 187.6723
  Impulse FP iterations last/mean/max 5/5.00/5
Step  1700/2000   85.0% | t 85.000 | ETA 20s | step 0.06s | KE 263.5962 | drift -2.74% | fluid 72.5876 | solid 191.0086
  Impulse FP iterations last/mean/max 5/5.00/5
Step  1800/2000   90.0% | t 90.000 | ETA 13s | step 0.07s | KE 267.4041 | drift -1.34% | fluid 72.5876 | solid 194.8165
  Impulse FP iterations last/mean/max 5/5.00/5
Step  1900/2000   95.0% | t 95.000 | ETA 6s | step 0.07s | KE 271.6836 | drift +0.24% | fluid 72.5876 | solid 199.0960
  Impulse FP iterations last/mean/max 5/5.00/5
Solver finished successfully - good job!
Results saved successfully.

================== Run summary ==================
  Bodies:            2
  Triangles / nodes: 256 / 516
  Timesteps:         2000  (dt = 0.05)
  Simulated time:    0 -> 100
  First-step setup:  9.215 s
  Mean time/step:    0.0687 s  (excl. first step)
  Total wall time:   2m 26s
  Impulse FP iters last/mean/max: 5 / 5.000 / 5
  Approx impulse solves/step:     5.000
  Impulse start cache hits/direct: 1999 / 1
  Impulse global drift P/H:       2.848633e-9 / 1.001704e-2
  Impulse per-body max drift P/H: 3.515420e-9 / 1.056676e-3
  CPU cores:         256 available, 8 Rayon worker thread(s)
  Started:           2026-06-24 02:23:10
  Finished:          2026-06-24 02:25:37
  Output file:       /work/e643/e643/shared/multi_ellip/studies/departing_sphericity_sweep/runs/spheroid_prolate/homogeneous/spheroid_prolate_homogeneous_eps0_rho1_E0p5_sep8_run06_impulse_noproj/multiple_body_complete.dat
================================================
