
================ Simulation setup ================
  Run label:         /work/e643/e643/shared/multi_ellip/studies/two_body_paper_sweeps/runs/ellipsoid_1_0p8_0p6/ellipsoid_1_0p8_0p6_rho0p03_E0p55_sep3_run01_impulse_noproj/
  Started:           2026-06-22 20:03:26
  Input file:        /work/e643/e643/shared/multi_ellip/studies/two_body_paper_sweeps/runs/ellipsoid_1_0p8_0p6/ellipsoid_1_0p8_0p6_rho0p03_E0p55_sep3_run01_impulse_noproj/input.txt
  Output file:       /work/e643/e643/shared/multi_ellip/studies/two_body_paper_sweeps/runs/ellipsoid_1_0p8_0p6/ellipsoid_1_0p8_0p6_rho0p03_E0p55_sep3_run01_impulse_noproj/multiple_body_complete.dat
  Bodies:            2
  Fluid density:     1
  Mesh:              ndiv 2 -> 256 triangles / 516 nodes
  Simulated time:    0 -> 100  (dt = 0.05, ~2000 steps)
  Output cadence:    every 1 step(s)
  Output rows:       ~2001
  Progress cadence:  every 100 step(s)
  CPU cores:         256 available, 8 Rayon worker thread(s)
  Strong coupling:   disabled
  Impulse scheme:    enabled
  Hamiltonian step:  disabled
  Hamiltonian midpt: disabled
  Variational step:  disabled
  Energy projection: disabled
  Projection particular metric: Euclidean
  Fluid KE gradient: disabled  (eps = 0.001, scale = 1, linear = 1, angular = 1)
  Fluid KE discrete gradient: disabled
  Impulse pair metric correction: disabled  (mode = pair discrete-gradient, cutoff = all pairs, inner/outer = 0/0, eps = 0.001, linear scale = 1, angular scale = 0)
  Impulse metric correction: disabled  (internal load constraint = disabled)
  Impulse variational defect probe: disabled
  Impulse quadratic pressure: disabled  (scale = 1)
  Added-mass stab:   disabled
  Exact BEM geometry: disabled
  Exact singular BEM: disabled
  Legacy singular SLP diagnostic: disabled
  Phi-dot blend:     0 (off)

  Solver guidance:
    - Strong coupling: use for stiff close-coupled runs; slower but more implicit.
    - Impulse scheme: use when impulse/momentum conservation or KE drift is the focus. Recommended.
    - Added-mass stab: use for higher mesh counts (ndiv > 3) to preserve stability - deprecated.
================================================
Solver starting - good luck!

Initial state:
  Body  1
    density:          0.030000
    shape axes ratio: (1.000000, 0.800000, 0.600000)
    initial KE ratio: 0.550000
    position:         (-1.500000, 0.000000, 0.000000)
    velocity:         (0.410931, 5.000819, 3.064628)
    angular velocity: (1.963436, 3.778768, 4.619983)
    orientation:      (w=0.447214, i=0.894427, j=0.000000, k=0.000000)
  Body  2
    density:          0.030000
    shape axes ratio: (1.000000, 0.800000, 0.600000)
    initial KE ratio: 0.550000
    position:         (1.500000, 0.000000, 0.000000)
    velocity:         (0.379898, 4.623158, 2.833188)
    angular velocity: (-4.829063, 0.196174, 4.014982)
    orientation:      (w=0.707107, i=0.000000, j=0.707107, k=0.000000)

Preparing first step: implicit scheme, no bootstrap passes required.
First step may take longer than later steps.

First step completed in 0.563 s.

Step   100/2000    5.0% | t 5.000 | ETA 12m 40s | step 0.41s | KE 130.4323 | drift +22.34% | fluid 120.6394 | solid 9.7929
  Impulse FP iterations last/mean/max 30/29.92/30
Step   200/2000   10.0% | t 10.000 | ETA 11m 53s | step 0.39s | KE 129.4369 | drift +21.40% | fluid 117.2422 | solid 12.1947
  Impulse FP iterations last/mean/max 30/29.94/30
Step   300/2000   15.0% | t 15.000 | ETA 11m 4s | step 0.34s | KE 129.5823 | drift +21.54% | fluid 116.6524 | solid 12.9299
  Impulse FP iterations last/mean/max 30/29.95/30
Step   400/2000   20.0% | t 20.000 | ETA 10m 13s | step 0.33s | KE 128.5421 | drift +20.57% | fluid 115.1743 | solid 13.3679
  Impulse FP iterations last/mean/max 30/29.95/30
Step   500/2000   25.0% | t 25.000 | ETA 9m 25s | step 0.37s | KE 129.1174 | drift +21.10% | fluid 120.0821 | solid 9.0353
  Impulse FP iterations last/mean/max 30/29.94/30
Step   600/2000   30.0% | t 30.000 | ETA 8m 44s | step 0.34s | KE 129.6545 | drift +21.61% | fluid 120.8571 | solid 8.7974
  Impulse FP iterations last/mean/max 30/29.94/30
Step   700/2000   35.0% | t 35.000 | ETA 8m 4s | step 0.34s | KE 128.3654 | drift +20.40% | fluid 116.0163 | solid 12.3491
  Impulse FP iterations last/mean/max 30/29.94/30
Step   800/2000   40.0% | t 40.000 | ETA 7m 24s | step 0.35s | KE 126.0624 | drift +18.24% | fluid 112.2746 | solid 13.7878
  Impulse FP iterations last/mean/max 30/29.93/30
Step   900/2000   45.0% | t 45.000 | ETA 6m 45s | step 0.34s | KE 129.9009 | drift +21.84% | fluid 119.7448 | solid 10.1561
  Impulse FP iterations last/mean/max 30/29.93/30
Step  1000/2000   50.0% | t 50.000 | ETA 6m 6s | step 0.36s | KE 126.4740 | drift +18.63% | fluid 114.1771 | solid 12.2969
  Impulse FP iterations last/mean/max 30/29.93/30
Step  1100/2000   55.0% | t 55.000 | ETA 5m 29s | step 0.35s | KE 129.8627 | drift +21.80% | fluid 117.5286 | solid 12.3341
  Impulse FP iterations last/mean/max 30/29.93/30
Step  1200/2000   60.0% | t 60.000 | ETA 4m 50s | step 0.31s | KE 130.3173 | drift +22.23% | fluid 118.8715 | solid 11.4458
  Impulse FP iterations last/mean/max 30/29.94/30
Step  1300/2000   65.0% | t 65.000 | ETA 4m 11s | step 0.28s | KE 130.4348 | drift +22.34% | fluid 119.6681 | solid 10.7667
  Impulse FP iterations last/mean/max 30/29.94/30
Step  1400/2000   70.0% | t 70.000 | ETA 3m 31s | step 0.26s | KE 129.5966 | drift +21.55% | fluid 118.7992 | solid 10.7974
  Impulse FP iterations last/mean/max 30/29.94/30
Step  1500/2000   75.0% | t 75.000 | ETA 2m 53s | step 0.28s | KE 126.5706 | drift +18.72% | fluid 112.8054 | solid 13.7652
  Impulse FP iterations last/mean/max 30/29.94/30
Step  1600/2000   80.0% | t 80.000 | ETA 2m 17s | step 0.29s | KE 128.2217 | drift +20.26% | fluid 115.6915 | solid 12.5302
  Impulse FP iterations last/mean/max 30/29.95/30
Step  1700/2000   85.0% | t 85.000 | ETA 1m 41s | step 0.29s | KE 128.7286 | drift +20.74% | fluid 114.7107 | solid 14.0179
  Impulse FP iterations last/mean/max 30/29.94/30
Step  1800/2000   90.0% | t 90.000 | ETA 1m 7s | step 0.29s | KE 130.3852 | drift +22.29% | fluid 118.0958 | solid 12.2894
  Impulse FP iterations last/mean/max 30/29.95/30
Step  1900/2000   95.0% | t 95.000 | ETA 33s | step 0.28s | KE 129.5199 | drift +21.48% | fluid 117.2706 | solid 12.2493
  Impulse FP iterations last/mean/max 30/29.94/30
Solver finished successfully - good job!
Results saved successfully.

================== Run summary ==================
  Bodies:            2
  Triangles / nodes: 256 / 516
  Timesteps:         2000  (dt = 0.05)
  Simulated time:    0 -> 100
  First-step setup:  0.563 s
  Mean time/step:    0.3321 s  (excl. first step)
  Total wall time:   11m 4s
  Impulse FP iters last/mean/max: 30 / 29.942 / 30
  Approx impulse solves/step:     29.942
  Impulse start cache hits/direct: 1999 / 1
  Impulse global drift P/H:       4.016860e-5 / 4.461806e-2
  Impulse per-body max drift P/H: 6.294641e-5 / 3.576382e-2
  CPU cores:         256 available, 8 Rayon worker thread(s)
  Started:           2026-06-22 20:03:26
  Finished:          2026-06-22 20:14:31
  Output file:       /work/e643/e643/shared/multi_ellip/studies/two_body_paper_sweeps/runs/ellipsoid_1_0p8_0p6/ellipsoid_1_0p8_0p6_rho0p03_E0p55_sep3_run01_impulse_noproj/multiple_body_complete.dat
================================================
