
================ Simulation setup ================
  Run label:         /work/e643/e643/shared/multi_ellip/studies/two_body_paper_sweeps/runs/spheroid_1_0p7_0p7/spheroid_1_0p7_0p7_rho1_E0p2_sep3_run03_impulse_noproj/
  Started:           2026-06-24 01:29:35
  Input file:        /work/e643/e643/shared/multi_ellip/studies/two_body_paper_sweeps/runs/spheroid_1_0p7_0p7/spheroid_1_0p7_0p7_rho1_E0p2_sep3_run03_impulse_noproj/input.txt
  Output file:       /work/e643/e643/shared/multi_ellip/studies/two_body_paper_sweeps/runs/spheroid_1_0p7_0p7/spheroid_1_0p7_0p7_rho1_E0p2_sep3_run03_impulse_noproj/multiple_body_complete.dat
  Bodies:            2
  Fluid density:     1
  Mesh:              ndiv 2 -> 256 triangles / 516 nodes
  Simulated time:    0 -> 100  (dt = 0.05, ~2000 steps)
  Output cadence:    every 1 step(s)
  Output rows:       ~2001
  Progress cadence:  every 100 step(s)
  CPU cores:         256 available, 8 Rayon worker thread(s)
  Strong coupling:   disabled
  Impulse scheme:    enabled
  Hamiltonian step:  disabled
  Hamiltonian midpt: disabled
  Variational step:  disabled
  Energy projection: disabled
  Projection particular metric: Euclidean
  Fluid KE gradient: disabled  (eps = 0.001, scale = 1, linear = 1, angular = 1)
  Fluid KE discrete gradient: disabled
  Impulse pair metric correction: disabled  (mode = pair discrete-gradient, cutoff = all pairs, inner/outer = 0/0, eps = 0.001, linear scale = 1, angular scale = 0)
  Impulse metric correction: disabled  (internal load constraint = disabled)
  Impulse variational defect probe: disabled
  Impulse quadratic pressure: disabled  (scale = 1)
  Added-mass stab:   disabled
  Exact BEM geometry: disabled
  Exact singular BEM: disabled
  Legacy singular SLP diagnostic: disabled
  Phi-dot blend:     0 (off)

  Solver guidance:
    - Strong coupling: use for stiff close-coupled runs; slower but more implicit.
    - Impulse scheme: use when impulse/momentum conservation or KE drift is the focus. Recommended.
    - Added-mass stab: use for higher mesh counts (ndiv > 3) to preserve stability - deprecated.
================================================
Solver starting - good luck!

Initial state:
  Body  1
    density:          1.000000
    shape axes ratio: (1.000000, 0.700000, 0.700000)
    initial KE ratio: 0.200000
    position:         (-1.500000, 0.000000, 0.000000)
    velocity:         (0.588876, -6.247673, -4.813061)
    angular velocity: (-6.254192, 0.151098, -0.583667)
    orientation:      (w=0.341021, i=0.813767, j=-0.470225, k=0.019395)
  Body  2
    density:          1.000000
    shape axes ratio: (1.000000, 0.700000, 0.700000)
    initial KE ratio: 0.200000
    position:         (1.500000, 0.000000, 0.000000)
    velocity:         (0.682175, -7.237528, -5.575621)
    angular velocity: (-3.612250, -3.880702, 3.371975)
    orientation:      (w=0.299960, i=0.948444, j=0.096103, k=0.035254)

Preparing first step: implicit scheme, no bootstrap passes required.
First step may take longer than later steps.

First step completed in 0.271 s.

Step   100/2000    5.0% | t 5.000 | ETA 4m 33s | step 0.15s | KE 611.7163 | drift +4.13% | fluid 193.7566 | solid 417.9597
  Impulse FP iterations last/mean/max 10/10.55/11
Step   200/2000   10.0% | t 10.000 | ETA 4m 7s | step 0.13s | KE 600.3962 | drift +2.20% | fluid 194.7106 | solid 405.6856
  Impulse FP iterations last/mean/max 10/10.46/11
Step   300/2000   15.0% | t 15.000 | ETA 3m 53s | step 0.15s | KE 601.8910 | drift +2.46% | fluid 201.8881 | solid 400.0029
  Impulse FP iterations last/mean/max 10/10.42/11
Step   400/2000   20.0% | t 20.000 | ETA 3m 43s | step 0.14s | KE 601.2898 | drift +2.36% | fluid 207.3262 | solid 393.9637
  Impulse FP iterations last/mean/max 10/10.39/11
Step   500/2000   25.0% | t 25.000 | ETA 3m 31s | step 0.14s | KE 600.9020 | drift +2.29% | fluid 212.4449 | solid 388.4571
  Impulse FP iterations last/mean/max 10/10.37/11
Step   600/2000   30.0% | t 30.000 | ETA 3m 19s | step 0.15s | KE 601.1026 | drift +2.32% | fluid 210.9201 | solid 390.1825
  Impulse FP iterations last/mean/max 10/10.36/11
Step   700/2000   35.0% | t 35.000 | ETA 3m 5s | step 0.14s | KE 601.4711 | drift +2.39% | fluid 204.7472 | solid 396.7239
  Impulse FP iterations last/mean/max 10/10.35/11
Step   800/2000   40.0% | t 40.000 | ETA 2m 51s | step 0.13s | KE 601.7865 | drift +2.44% | fluid 200.6998 | solid 401.0866
  Impulse FP iterations last/mean/max 10/10.34/11
Step   900/2000   45.0% | t 45.000 | ETA 2m 37s | step 0.14s | KE 601.9336 | drift +2.47% | fluid 195.9606 | solid 405.9730
  Impulse FP iterations last/mean/max 10/10.33/11
Step  1000/2000   50.0% | t 50.000 | ETA 2m 23s | step 0.14s | KE 602.0699 | drift +2.49% | fluid 198.2661 | solid 403.8039
  Impulse FP iterations last/mean/max 10/10.32/11
Step  1100/2000   55.0% | t 55.000 | ETA 2m 9s | step 0.17s | KE 601.7144 | drift +2.43% | fluid 199.9390 | solid 401.7754
  Impulse FP iterations last/mean/max 11/10.33/11
Step  1200/2000   60.0% | t 60.000 | ETA 1m 55s | step 0.15s | KE 601.6126 | drift +2.41% | fluid 205.7213 | solid 395.8914
  Impulse FP iterations last/mean/max 11/10.33/11
Step  1300/2000   65.0% | t 65.000 | ETA 1m 41s | step 0.16s | KE 601.3618 | drift +2.37% | fluid 205.0803 | solid 396.2815
  Impulse FP iterations last/mean/max 11/10.33/11
Step  1400/2000   70.0% | t 70.000 | ETA 1m 26s | step 0.14s | KE 601.4713 | drift +2.39% | fluid 205.1629 | solid 396.3084
  Impulse FP iterations last/mean/max 10/10.33/11
Step  1500/2000   75.0% | t 75.000 | ETA 1m 11s | step 0.14s | KE 601.4158 | drift +2.38% | fluid 201.8349 | solid 399.5810
  Impulse FP iterations last/mean/max 11/10.32/11
Step  1600/2000   80.0% | t 80.000 | ETA 56s | step 0.12s | KE 601.3765 | drift +2.37% | fluid 200.9886 | solid 400.3879
  Impulse FP iterations last/mean/max 11/10.31/11
Step  1700/2000   85.0% | t 85.000 | ETA 42s | step 0.12s | KE 601.4396 | drift +2.38% | fluid 200.5856 | solid 400.8540
  Impulse FP iterations last/mean/max 11/10.31/11
Step  1800/2000   90.0% | t 90.000 | ETA 27s | step 0.10s | KE 601.5395 | drift +2.40% | fluid 199.6842 | solid 401.8553
  Impulse FP iterations last/mean/max 10/10.31/11
Step  1900/2000   95.0% | t 95.000 | ETA 13s | step 0.10s | KE 601.6504 | drift +2.42% | fluid 202.8988 | solid 398.7515
  Impulse FP iterations last/mean/max 10/10.30/11
Solver finished successfully - good job!
Results saved successfully.

================== Run summary ==================
  Bodies:            2
  Triangles / nodes: 256 / 516
  Timesteps:         2000  (dt = 0.05)
  Simulated time:    0 -> 100
  First-step setup:  0.271 s
  Mean time/step:    0.1359 s  (excl. first step)
  Total wall time:   4m 31s
  Impulse FP iters last/mean/max: 10 / 10.303 / 11
  Approx impulse solves/step:     10.304
  Impulse start cache hits/direct: 1999 / 1
  Impulse global drift P/H:       4.363442e-8 / 1.570664e-2
  Impulse per-body max drift P/H: 5.124258e-8 / 2.955073e-3
  CPU cores:         256 available, 8 Rayon worker thread(s)
  Started:           2026-06-24 01:29:35
  Finished:          2026-06-24 01:34:07
  Output file:       /work/e643/e643/shared/multi_ellip/studies/two_body_paper_sweeps/runs/spheroid_1_0p7_0p7/spheroid_1_0p7_0p7_rho1_E0p2_sep3_run03_impulse_noproj/multiple_body_complete.dat
================================================
