
================ Simulation setup ================
  Run label:         /work/e643/e643/shared/multi_ellip/studies/departing_sphericity_sweep/runs/triaxial/homogeneous/triaxial_homogeneous_eps0p01_rho1_E0p5_sep8_run06_impulse_noproj/
  Started:           2026-06-24 02:26:27
  Input file:        /work/e643/e643/shared/multi_ellip/studies/departing_sphericity_sweep/runs/triaxial/homogeneous/triaxial_homogeneous_eps0p01_rho1_E0p5_sep8_run06_impulse_noproj/input.txt
  Output file:       /work/e643/e643/shared/multi_ellip/studies/departing_sphericity_sweep/runs/triaxial/homogeneous/triaxial_homogeneous_eps0p01_rho1_E0p5_sep8_run06_impulse_noproj/multiple_body_complete.dat
  Bodies:            2
  Fluid density:     1
  Mesh:              ndiv 2 -> 256 triangles / 516 nodes
  Simulated time:    0 -> 100  (dt = 0.05, ~2000 steps)
  Output cadence:    every 1 step(s)
  Output rows:       ~2001
  Progress cadence:  every 100 step(s)
  CPU cores:         256 available, 8 Rayon worker thread(s)
  Strong coupling:   disabled
  Impulse scheme:    enabled
  Hamiltonian step:  disabled
  Hamiltonian midpt: disabled
  Variational step:  disabled
  Energy projection: disabled
  Projection particular metric: Euclidean
  Fluid KE gradient: disabled  (eps = 0.001, scale = 1, linear = 1, angular = 1)
  Fluid KE discrete gradient: disabled
  Impulse pair metric correction: disabled  (mode = pair discrete-gradient, cutoff = all pairs, inner/outer = 0/0, eps = 0.001, linear scale = 1, angular scale = 0)
  Impulse metric correction: disabled  (internal load constraint = disabled)
  Impulse variational defect probe: disabled
  Impulse quadratic pressure: disabled  (scale = 1)
  Added-mass stab:   disabled
  Exact BEM geometry: disabled
  Exact singular BEM: disabled
  Legacy singular SLP diagnostic: disabled
  Phi-dot blend:     0 (off)

  Solver guidance:
    - Strong coupling: use for stiff close-coupled runs; slower but more implicit.
    - Impulse scheme: use when impulse/momentum conservation or KE drift is the focus. Recommended.
    - Added-mass stab: use for higher mesh counts (ndiv > 3) to preserve stability - deprecated.
================================================
Solver starting - good luck!

Initial state:
  Body  1
    density:          1.000000
    shape axes ratio: (1.000000, 0.990099, 0.980296)
    initial KE ratio: 0.500000
    position:         (-4.000000, 0.000000, 0.000000)
    velocity:         (4.120606, -1.039764, 3.663225)
    angular velocity: (-4.064571, 4.468611, 1.728930)
    orientation:      (w=0.117592, i=0.327675, j=-0.836739, k=0.422693)
  Body  2
    density:          1.000000
    shape axes ratio: (1.000000, 0.990099, 0.980296)
    initial KE ratio: 0.500000
    position:         (4.000000, 0.000000, 0.000000)
    velocity:         (4.131169, -1.042430, 3.672616)
    angular velocity: (3.785076, -1.973941, 4.610333)
    orientation:      (w=0.788111, i=-0.564005, j=0.217010, k=-0.116984)

Preparing first step: implicit scheme, no bootstrap passes required.
First step may take longer than later steps.

First step completed in 0.311 s.

Step   100/2000    5.0% | t 5.000 | ETA 3m 33s | step 0.11s | KE 278.3078 | drift +2.87% | fluid 72.0630 | solid 206.2448
  Impulse FP iterations last/mean/max 8/7.91/8
Step   200/2000   10.0% | t 10.000 | ETA 3m 23s | step 0.12s | KE 287.7969 | drift +6.38% | fluid 72.0366 | solid 215.7603
  Impulse FP iterations last/mean/max 8/7.96/8
Step   300/2000   15.0% | t 15.000 | ETA 3m 10s | step 0.10s | KE 298.9686 | drift +10.50% | fluid 72.0812 | solid 226.8874
  Impulse FP iterations last/mean/max 7/7.91/8
Step   400/2000   20.0% | t 20.000 | ETA 2m 58s | step 0.10s | KE 311.7775 | drift +15.24% | fluid 72.0929 | solid 239.6846
  Impulse FP iterations last/mean/max 8/7.87/8
Step   500/2000   25.0% | t 25.000 | ETA 2m 47s | step 0.10s | KE 326.2088 | drift +20.57% | fluid 72.0151 | solid 254.1937
  Impulse FP iterations last/mean/max 7/7.84/8
Step   600/2000   30.0% | t 30.000 | ETA 2m 36s | step 0.12s | KE 342.2471 | drift +26.50% | fluid 72.1650 | solid 270.0821
  Impulse FP iterations last/mean/max 8/7.84/8
Step   700/2000   35.0% | t 35.000 | ETA 2m 24s | step 0.10s | KE 359.9922 | drift +33.06% | fluid 72.1498 | solid 287.8424
  Impulse FP iterations last/mean/max 7/7.80/8
Step   800/2000   40.0% | t 40.000 | ETA 2m 11s | step 0.10s | KE 379.5113 | drift +40.27% | fluid 72.3912 | solid 307.1201
  Impulse FP iterations last/mean/max 7/7.74/8
Step   900/2000   45.0% | t 45.000 | ETA 2m 0s | step 0.11s | KE 400.9078 | drift +48.18% | fluid 72.1661 | solid 328.7417
  Impulse FP iterations last/mean/max 8/7.69/8
Step  1000/2000   50.0% | t 50.000 | ETA 1m 48s | step 0.10s | KE 424.1560 | drift +56.78% | fluid 71.9391 | solid 352.2169
  Impulse FP iterations last/mean/max 7/7.66/8
Step  1100/2000   55.0% | t 55.000 | ETA 1m 37s | step 0.10s | KE 449.3028 | drift +66.07% | fluid 71.9580 | solid 377.3449
  Impulse FP iterations last/mean/max 7/7.63/8
Step  1200/2000   60.0% | t 60.000 | ETA 1m 26s | step 0.11s | KE 476.4082 | drift +76.09% | fluid 72.2484 | solid 404.1599
  Impulse FP iterations last/mean/max 8/7.60/8
Step  1300/2000   65.0% | t 65.000 | ETA 1m 15s | step 0.10s | KE 505.5699 | drift +86.87% | fluid 72.4513 | solid 433.1185
  Impulse FP iterations last/mean/max 7/7.57/8
Step  1400/2000   70.0% | t 70.000 | ETA 1m 4s | step 0.10s | KE 537.1829 | drift +98.55% | fluid 71.9693 | solid 465.2136
  Impulse FP iterations last/mean/max 7/7.54/8
Step  1500/2000   75.0% | t 75.000 | ETA 53s | step 0.12s | KE 570.9934 | drift +111.05% | fluid 71.9874 | solid 499.0060
  Impulse FP iterations last/mean/max 8/7.52/8
Step  1600/2000   80.0% | t 80.000 | ETA 42s | step 0.10s | KE 606.8849 | drift +124.32% | fluid 72.3471 | solid 534.5379
  Impulse FP iterations last/mean/max 7/7.50/8
Step  1700/2000   85.0% | t 85.000 | ETA 31s | step 0.11s | KE 645.7041 | drift +138.66% | fluid 71.9060 | solid 573.7981
  Impulse FP iterations last/mean/max 7/7.47/8
Step  1800/2000   90.0% | t 90.000 | ETA 21s | step 0.11s | KE 686.5893 | drift +153.78% | fluid 72.2213 | solid 614.3680
  Impulse FP iterations last/mean/max 7/7.45/8
Step  1900/2000   95.0% | t 95.000 | ETA 10s | step 0.10s | KE 730.1761 | drift +169.89% | fluid 72.0096 | solid 658.1665
  Impulse FP iterations last/mean/max 8/7.44/8
Solver finished successfully - good job!
Results saved successfully.

================== Run summary ==================
  Bodies:            2
  Triangles / nodes: 256 / 516
  Timesteps:         2000  (dt = 0.05)
  Simulated time:    0 -> 100
  First-step setup:  0.311 s
  Mean time/step:    0.1052 s  (excl. first step)
  Total wall time:   3m 30s
  Impulse FP iters last/mean/max: 7 / 7.423 / 8
  Approx impulse solves/step:     7.423
  Impulse start cache hits/direct: 1999 / 1
  Impulse global drift P/H:       1.555318e-8 / 3.430883e-2
  Impulse per-body max drift P/H: 2.363761e-8 / 5.056313e-3
  CPU cores:         256 available, 8 Rayon worker thread(s)
  Started:           2026-06-24 02:26:27
  Finished:          2026-06-24 02:29:57
  Output file:       /work/e643/e643/shared/multi_ellip/studies/departing_sphericity_sweep/runs/triaxial/homogeneous/triaxial_homogeneous_eps0p01_rho1_E0p5_sep8_run06_impulse_noproj/multiple_body_complete.dat
================================================
