
================ Simulation setup ================
  Run label:         /work/e643/e643/shared/multi_ellip/studies/departing_sphericity_sweep/runs/spheroid_oblate/homogeneous/spheroid_oblate_homogeneous_eps0p03_rho1_E0p5_sep8_run04_impulse_noproj/
  Started:           2026-06-24 02:26:26
  Input file:        /work/e643/e643/shared/multi_ellip/studies/departing_sphericity_sweep/runs/spheroid_oblate/homogeneous/spheroid_oblate_homogeneous_eps0p03_rho1_E0p5_sep8_run04_impulse_noproj/input.txt
  Output file:       /work/e643/e643/shared/multi_ellip/studies/departing_sphericity_sweep/runs/spheroid_oblate/homogeneous/spheroid_oblate_homogeneous_eps0p03_rho1_E0p5_sep8_run04_impulse_noproj/multiple_body_complete.dat
  Bodies:            2
  Fluid density:     1
  Mesh:              ndiv 2 -> 256 triangles / 516 nodes
  Simulated time:    0 -> 100  (dt = 0.05, ~2000 steps)
  Output cadence:    every 1 step(s)
  Output rows:       ~2001
  Progress cadence:  every 100 step(s)
  CPU cores:         256 available, 8 Rayon worker thread(s)
  Strong coupling:   disabled
  Impulse scheme:    enabled
  Hamiltonian step:  disabled
  Hamiltonian midpt: disabled
  Variational step:  disabled
  Energy projection: disabled
  Projection particular metric: Euclidean
  Fluid KE gradient: disabled  (eps = 0.001, scale = 1, linear = 1, angular = 1)
  Fluid KE discrete gradient: disabled
  Impulse pair metric correction: disabled  (mode = pair discrete-gradient, cutoff = all pairs, inner/outer = 0/0, eps = 0.001, linear scale = 1, angular scale = 0)
  Impulse metric correction: disabled  (internal load constraint = disabled)
  Impulse variational defect probe: disabled
  Impulse quadratic pressure: disabled  (scale = 1)
  Added-mass stab:   disabled
  Exact BEM geometry: disabled
  Exact singular BEM: disabled
  Legacy singular SLP diagnostic: disabled
  Phi-dot blend:     0 (off)

  Solver guidance:
    - Strong coupling: use for stiff close-coupled runs; slower but more implicit.
    - Impulse scheme: use when impulse/momentum conservation or KE drift is the focus. Recommended.
    - Added-mass stab: use for higher mesh counts (ndiv > 3) to preserve stability - deprecated.
================================================
Solver starting - good luck!

Initial state:
  Body  1
    density:          1.000000
    shape axes ratio: (1.000000, 1.000000, 0.915142)
    initial KE ratio: 0.500000
    position:         (-4.000000, 0.000000, 0.000000)
    velocity:         (5.561311, 0.483752, -0.008307)
    angular velocity: (-0.669028, 5.791246, -2.343562)
    orientation:      (w=0.913990, i=0.274827, j=-0.190096, k=-0.230123)
  Body  2
    density:          1.000000
    shape axes ratio: (1.000000, 1.000000, 0.915142)
    initial KE ratio: 0.500000
    position:         (4.000000, 0.000000, 0.000000)
    velocity:         (5.534077, 0.481383, -0.008267)
    angular velocity: (-0.299542, 6.189595, -1.038076)
    orientation:      (w=-0.775097, i=0.251665, j=0.346506, k=0.464568)

Preparing first step: implicit scheme, no bootstrap passes required.
First step may take longer than later steps.

First step completed in 0.304 s.

Step   100/2000    5.0% | t 5.000 | ETA 3m 34s | step 0.11s | KE 265.4984 | drift -0.01% | fluid 68.9249 | solid 196.5736
  Impulse FP iterations last/mean/max 8/8.28/9
Step   200/2000   10.0% | t 10.000 | ETA 3m 22s | step 0.10s | KE 264.9339 | drift -0.23% | fluid 69.0626 | solid 195.8713
  Impulse FP iterations last/mean/max 8/8.29/9
Step   300/2000   15.0% | t 15.000 | ETA 3m 11s | step 0.12s | KE 265.3041 | drift -0.09% | fluid 68.7741 | solid 196.5300
  Impulse FP iterations last/mean/max 8/8.33/9
Step   400/2000   20.0% | t 20.000 | ETA 3m 0s | step 0.12s | KE 268.8808 | drift +1.26% | fluid 69.2162 | solid 199.6646
  Impulse FP iterations last/mean/max 9/8.30/9
Step   500/2000   25.0% | t 25.000 | ETA 2m 49s | step 0.12s | KE 278.1068 | drift +4.73% | fluid 70.2465 | solid 207.8603
  Impulse FP iterations last/mean/max 9/8.36/9
Step   600/2000   30.0% | t 30.000 | ETA 2m 38s | step 0.12s | KE 294.0307 | drift +10.73% | fluid 70.5329 | solid 223.4978
  Impulse FP iterations last/mean/max 9/8.38/9
Step   700/2000   35.0% | t 35.000 | ETA 2m 27s | step 0.12s | KE 315.1315 | drift +18.68% | fluid 69.6811 | solid 245.4505
  Impulse FP iterations last/mean/max 9/8.41/9
Step   800/2000   40.0% | t 40.000 | ETA 2m 16s | step 0.11s | KE 337.8067 | drift +27.22% | fluid 69.2597 | solid 268.5469
  Impulse FP iterations last/mean/max 8/8.43/9
Step   900/2000   45.0% | t 45.000 | ETA 2m 5s | step 0.12s | KE 358.7774 | drift +35.11% | fluid 69.3893 | solid 289.3880
  Impulse FP iterations last/mean/max 8/8.45/9
Step  1000/2000   50.0% | t 50.000 | ETA 1m 54s | step 0.13s | KE 375.8622 | drift +41.55% | fluid 70.3281 | solid 305.5341
  Impulse FP iterations last/mean/max 9/8.47/9
Step  1100/2000   55.0% | t 55.000 | ETA 1m 43s | step 0.13s | KE 389.0167 | drift +46.50% | fluid 70.1621 | solid 318.8546
  Impulse FP iterations last/mean/max 9/8.47/9
Step  1200/2000   60.0% | t 60.000 | ETA 1m 31s | step 0.12s | KE 398.1532 | drift +49.94% | fluid 70.0371 | solid 328.1162
  Impulse FP iterations last/mean/max 9/8.46/9
Step  1300/2000   65.0% | t 65.000 | ETA 1m 19s | step 0.11s | KE 404.0569 | drift +52.17% | fluid 70.0487 | solid 334.0082
  Impulse FP iterations last/mean/max 8/8.45/9
Step  1400/2000   70.0% | t 70.000 | ETA 1m 8s | step 0.12s | KE 407.5551 | drift +53.48% | fluid 70.0948 | solid 337.4603
  Impulse FP iterations last/mean/max 9/8.43/9
Step  1500/2000   75.0% | t 75.000 | ETA 56s | step 0.12s | KE 409.4165 | drift +54.18% | fluid 69.9815 | solid 339.4351
  Impulse FP iterations last/mean/max 9/8.40/9
Step  1600/2000   80.0% | t 80.000 | ETA 45s | step 0.11s | KE 410.1410 | drift +54.46% | fluid 69.8989 | solid 340.2422
  Impulse FP iterations last/mean/max 8/8.38/9
Step  1700/2000   85.0% | t 85.000 | ETA 33s | step 0.10s | KE 409.9163 | drift +54.37% | fluid 70.2365 | solid 339.6798
  Impulse FP iterations last/mean/max 8/8.35/9
Step  1800/2000   90.0% | t 90.000 | ETA 22s | step 0.09s | KE 409.1737 | drift +54.09% | fluid 70.5207 | solid 338.6530
  Impulse FP iterations last/mean/max 8/8.33/9
Step  1900/2000   95.0% | t 95.000 | ETA 11s | step 0.07s | KE 408.3514 | drift +53.78% | fluid 70.3804 | solid 337.9709
  Impulse FP iterations last/mean/max 8/8.31/9
Solver finished successfully - good job!
Results saved successfully.

================== Run summary ==================
  Bodies:            2
  Triangles / nodes: 256 / 516
  Timesteps:         2000  (dt = 0.05)
  Simulated time:    0 -> 100
  First-step setup:  0.304 s
  Mean time/step:    0.1080 s  (excl. first step)
  Total wall time:   3m 36s
  Impulse FP iters last/mean/max: 8 / 8.297 / 9
  Approx impulse solves/step:     8.298
  Impulse start cache hits/direct: 1999 / 1
  Impulse global drift P/H:       4.191154e-8 / 2.846275e-2
  Impulse per-body max drift P/H: 4.312469e-8 / 1.745156e-2
  CPU cores:         256 available, 8 Rayon worker thread(s)
  Started:           2026-06-24 02:26:26
  Finished:          2026-06-24 02:30:03
  Output file:       /work/e643/e643/shared/multi_ellip/studies/departing_sphericity_sweep/runs/spheroid_oblate/homogeneous/spheroid_oblate_homogeneous_eps0p03_rho1_E0p5_sep8_run04_impulse_noproj/multiple_body_complete.dat
================================================
