
================ Simulation setup ================
  Run label:         /work/e643/e643/shared/multi_ellip/studies/two_body_paper_sweeps/runs/spheroid_1_0p7_0p7/spheroid_1_0p7_0p7_rho10_E0p55_sep8_run02_impulse_noproj/
  Started:           2026-06-22 19:23:17
  Input file:        /work/e643/e643/shared/multi_ellip/studies/two_body_paper_sweeps/runs/spheroid_1_0p7_0p7/spheroid_1_0p7_0p7_rho10_E0p55_sep8_run02_impulse_noproj/input.txt
  Output file:       /work/e643/e643/shared/multi_ellip/studies/two_body_paper_sweeps/runs/spheroid_1_0p7_0p7/spheroid_1_0p7_0p7_rho10_E0p55_sep8_run02_impulse_noproj/multiple_body_complete.dat
  Bodies:            2
  Fluid density:     1
  Mesh:              ndiv 2 -> 256 triangles / 516 nodes
  Simulated time:    0 -> 100  (dt = 0.05, ~2000 steps)
  Output cadence:    every 1 step(s)
  Output rows:       ~2001
  Progress cadence:  every 100 step(s)
  CPU cores:         256 available, 8 Rayon worker thread(s)
  Strong coupling:   disabled
  Impulse scheme:    enabled
  Hamiltonian step:  disabled
  Hamiltonian midpt: disabled
  Variational step:  disabled
  Energy projection: disabled
  Projection particular metric: Euclidean
  Fluid KE gradient: disabled  (eps = 0.001, scale = 1, linear = 1, angular = 1)
  Fluid KE discrete gradient: disabled
  Impulse pair metric correction: disabled  (mode = pair discrete-gradient, cutoff = all pairs, inner/outer = 0/0, eps = 0.001, linear scale = 1, angular scale = 0)
  Impulse metric correction: disabled  (internal load constraint = disabled)
  Impulse variational defect probe: disabled
  Impulse quadratic pressure: disabled  (scale = 1)
  Added-mass stab:   disabled
  Exact BEM geometry: disabled
  Exact singular BEM: disabled
  Legacy singular SLP diagnostic: disabled
  Phi-dot blend:     0 (off)

  Solver guidance:
    - Strong coupling: use for stiff close-coupled runs; slower but more implicit.
    - Impulse scheme: use when impulse/momentum conservation or KE drift is the focus. Recommended.
    - Added-mass stab: use for higher mesh counts (ndiv > 3) to preserve stability - deprecated.
================================================
Solver starting - good luck!

Initial state:
  Body  1
    density:          10.000000
    shape axes ratio: (1.000000, 0.700000, 0.700000)
    initial KE ratio: 0.550000
    position:         (-4.000000, 0.000000, 0.000000)
    velocity:         (0.166332, -0.023596, 5.815547)
    angular velocity: (1.377656, 6.127793, -0.175038)
    orientation:      (w=0.577350, i=0.577350, j=0.577350, k=0.000000)
  Body  2
    density:          10.000000
    shape axes ratio: (1.000000, 0.700000, 0.700000)
    initial KE ratio: 0.550000
    position:         (4.000000, 0.000000, 0.000000)
    velocity:         (0.153593, -0.021789, 5.370154)
    angular velocity: (-4.313773, -4.128846, -1.955098)
    orientation:      (w=0.577350, i=-0.577350, j=0.000000, k=0.577350)

Preparing first step: implicit scheme, no bootstrap passes required.
First step may take longer than later steps.

First step completed in 7.139 s.

Step   100/2000    5.0% | t 5.000 | ETA 2m 57s | step 0.10s | KE 2075.9864 | drift -0.04% | fluid 81.3801 | solid 1994.6063
  Impulse FP iterations last/mean/max 7/6.76/8
Step   200/2000   10.0% | t 10.000 | ETA 2m 50s | step 0.10s | KE 2075.4135 | drift -0.07% | fluid 72.7985 | solid 2002.6150
  Impulse FP iterations last/mean/max 7/6.75/8
Step   300/2000   15.0% | t 15.000 | ETA 2m 41s | step 0.11s | KE 2075.1057 | drift -0.08% | fluid 72.9557 | solid 2002.1500
  Impulse FP iterations last/mean/max 7/6.75/8
Step   400/2000   20.0% | t 20.000 | ETA 2m 31s | step 0.09s | KE 2075.1316 | drift -0.08% | fluid 67.0823 | solid 2008.0493
  Impulse FP iterations last/mean/max 6/6.73/8
Step   500/2000   25.0% | t 25.000 | ETA 2m 22s | step 0.10s | KE 2074.2117 | drift -0.12% | fluid 81.7776 | solid 1992.4342
  Impulse FP iterations last/mean/max 7/6.75/8
Step   600/2000   30.0% | t 30.000 | ETA 2m 14s | step 0.10s | KE 2074.0135 | drift -0.13% | fluid 75.1409 | solid 1998.8726
  Impulse FP iterations last/mean/max 7/6.74/8
Step   700/2000   35.0% | t 35.000 | ETA 2m 4s | step 0.08s | KE 2073.6334 | drift -0.15% | fluid 75.7008 | solid 1997.9325
  Impulse FP iterations last/mean/max 6/6.75/8
Step   800/2000   40.0% | t 40.000 | ETA 1m 55s | step 0.10s | KE 2072.9659 | drift -0.18% | fluid 87.2067 | solid 1985.7593
  Impulse FP iterations last/mean/max 7/6.74/8
Step   900/2000   45.0% | t 45.000 | ETA 1m 45s | step 0.09s | KE 2073.0764 | drift -0.18% | fluid 78.5256 | solid 1994.5508
  Impulse FP iterations last/mean/max 6/6.74/8
Step  1000/2000   50.0% | t 50.000 | ETA 1m 35s | step 0.10s | KE 2072.8303 | drift -0.19% | fluid 76.0717 | solid 1996.7587
  Impulse FP iterations last/mean/max 7/6.74/8
Step  1100/2000   55.0% | t 55.000 | ETA 1m 25s | step 0.09s | KE 2072.2674 | drift -0.22% | fluid 79.2912 | solid 1992.9761
  Impulse FP iterations last/mean/max 7/6.74/8
Step  1200/2000   60.0% | t 60.000 | ETA 1m 15s | step 0.09s | KE 2072.3767 | drift -0.21% | fluid 66.3482 | solid 2006.0285
  Impulse FP iterations last/mean/max 7/6.75/8
Step  1300/2000   65.0% | t 65.000 | ETA 1m 6s | step 0.09s | KE 2072.0232 | drift -0.23% | fluid 70.7860 | solid 2001.2372
  Impulse FP iterations last/mean/max 7/6.75/8
Step  1400/2000   70.0% | t 70.000 | ETA 56s | step 0.10s | KE 2071.4470 | drift -0.26% | fluid 85.6055 | solid 1985.8414
  Impulse FP iterations last/mean/max 7/6.75/8
Step  1500/2000   75.0% | t 75.000 | ETA 47s | step 0.09s | KE 2071.6037 | drift -0.25% | fluid 81.2428 | solid 1990.3609
  Impulse FP iterations last/mean/max 6/6.75/8
Step  1600/2000   80.0% | t 80.000 | ETA 37s | step 0.09s | KE 2071.2863 | drift -0.26% | fluid 85.3423 | solid 1985.9440
  Impulse FP iterations last/mean/max 7/6.75/8
Step  1700/2000   85.0% | t 85.000 | ETA 28s | step 0.09s | KE 2070.9629 | drift -0.28% | fluid 86.3269 | solid 1984.6359
  Impulse FP iterations last/mean/max 6/6.75/8
Step  1800/2000   90.0% | t 90.000 | ETA 18s | step 0.09s | KE 2071.3506 | drift -0.26% | fluid 69.8220 | solid 2001.5286
  Impulse FP iterations last/mean/max 6/6.74/8
Step  1900/2000   95.0% | t 95.000 | ETA 9s | step 0.09s | KE 2071.1869 | drift -0.27% | fluid 72.7108 | solid 1998.4761
  Impulse FP iterations last/mean/max 7/6.74/8
Solver finished successfully - good job!
Results saved successfully.

================== Run summary ==================
  Bodies:            2
  Triangles / nodes: 256 / 516
  Timesteps:         2000  (dt = 0.05)
  Simulated time:    0 -> 100
  First-step setup:  7.139 s
  Mean time/step:    0.0939 s  (excl. first step)
  Total wall time:   3m 14s
  Impulse FP iters last/mean/max: 7 / 6.745 / 8
  Approx impulse solves/step:     6.745
  Impulse start cache hits/direct: 1999 / 1
  Impulse global drift P/H:       3.170703e-9 / 1.755982e-2
  Impulse per-body max drift P/H: 5.163311e-9 / 2.536392e-3
  CPU cores:         256 available, 8 Rayon worker thread(s)
  Started:           2026-06-22 19:23:17
  Finished:          2026-06-22 19:26:33
  Output file:       /work/e643/e643/shared/multi_ellip/studies/two_body_paper_sweeps/runs/spheroid_1_0p7_0p7/spheroid_1_0p7_0p7_rho10_E0p55_sep8_run02_impulse_noproj/multiple_body_complete.dat
================================================
