
================ Simulation setup ================
  Run label:         /work/e643/e643/shared/multi_ellip/studies/departing_sphericity_sweep/runs/spheroid_oblate/homogeneous/spheroid_oblate_homogeneous_eps0p01_rho1_E0p5_sep8_run04_impulse_noproj/
  Started:           2026-06-24 02:26:25
  Input file:        /work/e643/e643/shared/multi_ellip/studies/departing_sphericity_sweep/runs/spheroid_oblate/homogeneous/spheroid_oblate_homogeneous_eps0p01_rho1_E0p5_sep8_run04_impulse_noproj/input.txt
  Output file:       /work/e643/e643/shared/multi_ellip/studies/departing_sphericity_sweep/runs/spheroid_oblate/homogeneous/spheroid_oblate_homogeneous_eps0p01_rho1_E0p5_sep8_run04_impulse_noproj/multiple_body_complete.dat
  Bodies:            2
  Fluid density:     1
  Mesh:              ndiv 2 -> 256 triangles / 516 nodes
  Simulated time:    0 -> 100  (dt = 0.05, ~2000 steps)
  Output cadence:    every 1 step(s)
  Output rows:       ~2001
  Progress cadence:  every 100 step(s)
  CPU cores:         256 available, 8 Rayon worker thread(s)
  Strong coupling:   disabled
  Impulse scheme:    enabled
  Hamiltonian step:  disabled
  Hamiltonian midpt: disabled
  Variational step:  disabled
  Energy projection: disabled
  Projection particular metric: Euclidean
  Fluid KE gradient: disabled  (eps = 0.001, scale = 1, linear = 1, angular = 1)
  Fluid KE discrete gradient: disabled
  Impulse pair metric correction: disabled  (mode = pair discrete-gradient, cutoff = all pairs, inner/outer = 0/0, eps = 0.001, linear scale = 1, angular scale = 0)
  Impulse metric correction: disabled  (internal load constraint = disabled)
  Impulse variational defect probe: disabled
  Impulse quadratic pressure: disabled  (scale = 1)
  Added-mass stab:   disabled
  Exact BEM geometry: disabled
  Exact singular BEM: disabled
  Legacy singular SLP diagnostic: disabled
  Phi-dot blend:     0 (off)

  Solver guidance:
    - Strong coupling: use for stiff close-coupled runs; slower but more implicit.
    - Impulse scheme: use when impulse/momentum conservation or KE drift is the focus. Recommended.
    - Added-mass stab: use for higher mesh counts (ndiv > 3) to preserve stability - deprecated.
================================================
Solver starting - good luck!

Initial state:
  Body  1
    density:          1.000000
    shape axes ratio: (1.000000, 1.000000, 0.970590)
    initial KE ratio: 0.500000
    position:         (-4.000000, 0.000000, 0.000000)
    velocity:         (2.685847, 0.443821, -4.894151)
    angular velocity: (-5.836536, 1.432317, -1.833504)
    orientation:      (w=-0.621098, i=0.108538, j=0.613069, k=0.476028)
  Body  2
    density:          1.000000
    shape axes ratio: (1.000000, 1.000000, 0.970590)
    initial KE ratio: 0.500000
    position:         (4.000000, 0.000000, 0.000000)
    velocity:         (2.685207, 0.443715, -4.892985)
    angular velocity: (-4.633738, -3.908598, -1.652195)
    orientation:      (w=-0.480380, i=-0.822574, j=0.017570, k=-0.303806)

Preparing first step: implicit scheme, no bootstrap passes required.
First step may take longer than later steps.

First step completed in 0.256 s.

Step   100/2000    5.0% | t 5.000 | ETA 3m 19s | step 0.10s | KE 273.9723 | drift +1.87% | fluid 71.9173 | solid 202.0550
  Impulse FP iterations last/mean/max 8/7.81/8
Step   200/2000   10.0% | t 10.000 | ETA 3m 8s | step 0.10s | KE 281.3184 | drift +4.60% | fluid 71.7302 | solid 209.5882
  Impulse FP iterations last/mean/max 8/7.77/8
Step   300/2000   15.0% | t 15.000 | ETA 2m 58s | step 0.10s | KE 290.6708 | drift +8.08% | fluid 71.8411 | solid 218.8297
  Impulse FP iterations last/mean/max 7/7.75/8
Step   400/2000   20.0% | t 20.000 | ETA 2m 47s | step 0.10s | KE 302.0322 | drift +12.30% | fluid 72.0204 | solid 230.0118
  Impulse FP iterations last/mean/max 8/7.74/8
Step   500/2000   25.0% | t 25.000 | ETA 2m 36s | step 0.11s | KE 315.4938 | drift +17.31% | fluid 71.5566 | solid 243.9372
  Impulse FP iterations last/mean/max 8/7.74/8
Step   600/2000   30.0% | t 30.000 | ETA 2m 26s | step 0.11s | KE 330.7087 | drift +22.97% | fluid 71.9937 | solid 258.7150
  Impulse FP iterations last/mean/max 8/7.74/8
Step   700/2000   35.0% | t 35.000 | ETA 2m 16s | step 0.11s | KE 347.9422 | drift +29.37% | fluid 71.9682 | solid 275.9740
  Impulse FP iterations last/mean/max 8/7.75/8
Step   800/2000   40.0% | t 40.000 | ETA 2m 5s | step 0.11s | KE 366.9220 | drift +36.43% | fluid 72.2357 | solid 294.6863
  Impulse FP iterations last/mean/max 8/7.75/8
Step   900/2000   45.0% | t 45.000 | ETA 1m 55s | step 0.11s | KE 388.1602 | drift +44.33% | fluid 71.6724 | solid 316.4878
  Impulse FP iterations last/mean/max 8/7.76/8
Step  1000/2000   50.0% | t 50.000 | ETA 1m 44s | step 0.11s | KE 411.0640 | drift +52.84% | fluid 71.7952 | solid 339.2688
  Impulse FP iterations last/mean/max 8/7.76/8
Step  1100/2000   55.0% | t 55.000 | ETA 1m 34s | step 0.10s | KE 435.8491 | drift +62.06% | fluid 72.0720 | solid 363.7772
  Impulse FP iterations last/mean/max 8/7.77/8
Step  1200/2000   60.0% | t 60.000 | ETA 1m 24s | step 0.10s | KE 462.5703 | drift +71.99% | fluid 72.2912 | solid 390.2791
  Impulse FP iterations last/mean/max 8/7.77/8
Step  1300/2000   65.0% | t 65.000 | ETA 1m 13s | step 0.10s | KE 491.4775 | drift +82.74% | fluid 72.0811 | solid 419.3963
  Impulse FP iterations last/mean/max 8/7.77/8
Step  1400/2000   70.0% | t 70.000 | ETA 1m 3s | step 0.10s | KE 522.0954 | drift +94.13% | fluid 72.0175 | solid 450.0779
  Impulse FP iterations last/mean/max 8/7.78/8
Step  1500/2000   75.0% | t 75.000 | ETA 52s | step 0.08s | KE 554.6257 | drift +106.22% | fluid 71.9016 | solid 482.7242
  Impulse FP iterations last/mean/max 7/7.78/8
Step  1600/2000   80.0% | t 80.000 | ETA 41s | step 0.10s | KE 588.7680 | drift +118.92% | fluid 72.0888 | solid 516.6792
  Impulse FP iterations last/mean/max 8/7.79/8
Step  1700/2000   85.0% | t 85.000 | ETA 30s | step 0.10s | KE 624.5887 | drift +132.24% | fluid 72.1521 | solid 552.4366
  Impulse FP iterations last/mean/max 8/7.80/8
Step  1800/2000   90.0% | t 90.000 | ETA 20s | step 0.10s | KE 661.8596 | drift +146.09% | fluid 72.2833 | solid 589.5763
  Impulse FP iterations last/mean/max 7/7.80/8
Step  1900/2000   95.0% | t 95.000 | ETA 10s | step 0.10s | KE 701.0799 | drift +160.68% | fluid 71.9479 | solid 629.1319
  Impulse FP iterations last/mean/max 8/7.81/8
Solver finished successfully - good job!
Results saved successfully.

================== Run summary ==================
  Bodies:            2
  Triangles / nodes: 256 / 516
  Timesteps:         2000  (dt = 0.05)
  Simulated time:    0 -> 100
  First-step setup:  0.256 s
  Mean time/step:    0.1027 s  (excl. first step)
  Total wall time:   3m 25s
  Impulse FP iters last/mean/max: 8 / 7.814 / 8
  Approx impulse solves/step:     7.814
  Impulse start cache hits/direct: 1999 / 1
  Impulse global drift P/H:       3.234607e-8 / 4.487974e-2
  Impulse per-body max drift P/H: 6.890984e-8 / 6.061274e-3
  CPU cores:         256 available, 8 Rayon worker thread(s)
  Started:           2026-06-24 02:26:25
  Finished:          2026-06-24 02:29:51
  Output file:       /work/e643/e643/shared/multi_ellip/studies/departing_sphericity_sweep/runs/spheroid_oblate/homogeneous/spheroid_oblate_homogeneous_eps0p01_rho1_E0p5_sep8_run04_impulse_noproj/multiple_body_complete.dat
================================================
