
================ Simulation setup ================
  Run label:         /work/e643/e643/shared/multi_ellip/studies/departing_sphericity_sweep/runs/triaxial/heterogeneous_sphere/triaxial_heterogeneous_sphere_eps0p003_rho1_E0p5_sep8_run01_impulse_noproj/
  Started:           2026-06-24 02:43:21
  Input file:        /work/e643/e643/shared/multi_ellip/studies/departing_sphericity_sweep/runs/triaxial/heterogeneous_sphere/triaxial_heterogeneous_sphere_eps0p003_rho1_E0p5_sep8_run01_impulse_noproj/input.txt
  Output file:       /work/e643/e643/shared/multi_ellip/studies/departing_sphericity_sweep/runs/triaxial/heterogeneous_sphere/triaxial_heterogeneous_sphere_eps0p003_rho1_E0p5_sep8_run01_impulse_noproj/multiple_body_complete.dat
  Bodies:            2
  Fluid density:     1
  Mesh:              ndiv 2 -> 256 triangles / 516 nodes
  Simulated time:    0 -> 100  (dt = 0.05, ~2000 steps)
  Output cadence:    every 1 step(s)
  Output rows:       ~2001
  Progress cadence:  every 100 step(s)
  CPU cores:         256 available, 8 Rayon worker thread(s)
  Strong coupling:   disabled
  Impulse scheme:    enabled
  Hamiltonian step:  disabled
  Hamiltonian midpt: disabled
  Variational step:  disabled
  Energy projection: disabled
  Projection particular metric: Euclidean
  Fluid KE gradient: disabled  (eps = 0.001, scale = 1, linear = 1, angular = 1)
  Fluid KE discrete gradient: disabled
  Impulse pair metric correction: disabled  (mode = pair discrete-gradient, cutoff = all pairs, inner/outer = 0/0, eps = 0.001, linear scale = 1, angular scale = 0)
  Impulse metric correction: disabled  (internal load constraint = disabled)
  Impulse variational defect probe: disabled
  Impulse quadratic pressure: disabled  (scale = 1)
  Added-mass stab:   disabled
  Exact BEM geometry: disabled
  Exact singular BEM: disabled
  Legacy singular SLP diagnostic: disabled
  Phi-dot blend:     0 (off)

  Solver guidance:
    - Strong coupling: use for stiff close-coupled runs; slower but more implicit.
    - Impulse scheme: use when impulse/momentum conservation or KE drift is the focus. Recommended.
    - Added-mass stab: use for higher mesh counts (ndiv > 3) to preserve stability - deprecated.
================================================
Solver starting - good luck!

Initial state:
  Body  1
    density:          1.000000
    shape axes ratio: (1.000000, 0.997009, 0.994027)
    initial KE ratio: 0.500000
    position:         (-4.000000, 0.000000, 0.000000)
    velocity:         (-1.447598, 0.771642, -5.372168)
    angular velocity: (3.806589, -4.885099, -1.060236)
    orientation:      (w=0.170288, i=-0.709298, j=0.056832, k=0.681666)
  Body  2
    density:          1.000000
    shape axes ratio: (1.000000, 1.000000, 1.000000)
    initial KE ratio: 0.500000
    position:         (4.000000, 0.000000, 0.000000)
    velocity:         (-1.448322, 0.772028, -5.374855)
    angular velocity: (4.977962, 3.434096, -1.704493)
    orientation:      (w=0.977298, i=-0.051890, j=0.176923, k=0.104375)

Preparing first step: implicit scheme, no bootstrap passes required.
First step may take longer than later steps.

First step completed in 0.231 s.

Step   100/2000    5.0% | t 5.000 | ETA 3m 22s | step 0.12s | KE 269.6865 | drift -0.42% | fluid 72.3896 | solid 197.2969
  Impulse FP iterations last/mean/max 8/7.58/8
Step   200/2000   10.0% | t 10.000 | ETA 3m 10s | step 0.11s | KE 269.2791 | drift -0.57% | fluid 72.3715 | solid 196.9076
  Impulse FP iterations last/mean/max 8/7.58/8
Step   300/2000   15.0% | t 15.000 | ETA 3m 0s | step 0.11s | KE 269.5204 | drift -0.48% | fluid 72.4340 | solid 197.0864
  Impulse FP iterations last/mean/max 8/7.59/8
Step   400/2000   20.0% | t 20.000 | ETA 2m 50s | step 0.12s | KE 270.3649 | drift -0.17% | fluid 72.4342 | solid 197.9307
  Impulse FP iterations last/mean/max 8/7.59/8
Step   500/2000   25.0% | t 25.000 | ETA 2m 39s | step 0.10s | KE 271.7535 | drift +0.35% | fluid 72.3676 | solid 199.3859
  Impulse FP iterations last/mean/max 7/7.60/8
Step   600/2000   30.0% | t 30.000 | ETA 2m 29s | step 0.10s | KE 273.6213 | drift +1.04% | fluid 72.3788 | solid 201.2425
  Impulse FP iterations last/mean/max 7/7.60/8
Step   700/2000   35.0% | t 35.000 | ETA 2m 18s | step 0.12s | KE 275.9180 | drift +1.88% | fluid 72.4172 | solid 203.5008
  Impulse FP iterations last/mean/max 8/7.61/8
Step   800/2000   40.0% | t 40.000 | ETA 2m 8s | step 0.11s | KE 278.6000 | drift +2.87% | fluid 72.3758 | solid 206.2242
  Impulse FP iterations last/mean/max 8/7.61/8
Step   900/2000   45.0% | t 45.000 | ETA 1m 57s | step 0.11s | KE 281.6117 | drift +3.99% | fluid 72.4127 | solid 209.1991
  Impulse FP iterations last/mean/max 8/7.60/8
Step  1000/2000   50.0% | t 50.000 | ETA 1m 46s | step 0.11s | KE 284.9124 | drift +5.20% | fluid 72.4027 | solid 212.5097
  Impulse FP iterations last/mean/max 8/7.60/8
Step  1100/2000   55.0% | t 55.000 | ETA 1m 35s | step 0.10s | KE 288.4531 | drift +6.51% | fluid 72.4206 | solid 216.0326
  Impulse FP iterations last/mean/max 7/7.58/8
Step  1200/2000   60.0% | t 60.000 | ETA 1m 24s | step 0.10s | KE 292.2004 | drift +7.90% | fluid 72.3905 | solid 219.8099
  Impulse FP iterations last/mean/max 7/7.55/8
Step  1300/2000   65.0% | t 65.000 | ETA 1m 13s | step 0.10s | KE 296.1081 | drift +9.34% | fluid 72.4307 | solid 223.6774
  Impulse FP iterations last/mean/max 7/7.51/8
Step  1400/2000   70.0% | t 70.000 | ETA 1m 2s | step 0.10s | KE 300.1425 | drift +10.83% | fluid 72.3999 | solid 227.7426
  Impulse FP iterations last/mean/max 7/7.48/8
Step  1500/2000   75.0% | t 75.000 | ETA 52s | step 0.09s | KE 304.2674 | drift +12.35% | fluid 72.4068 | solid 231.8606
  Impulse FP iterations last/mean/max 7/7.45/8
Step  1600/2000   80.0% | t 80.000 | ETA 41s | step 0.10s | KE 308.4502 | drift +13.90% | fluid 72.4299 | solid 236.0204
  Impulse FP iterations last/mean/max 7/7.42/8
Step  1700/2000   85.0% | t 85.000 | ETA 31s | step 0.10s | KE 312.6580 | drift +15.45% | fluid 72.3947 | solid 240.2633
  Impulse FP iterations last/mean/max 7/7.39/8
Step  1800/2000   90.0% | t 90.000 | ETA 20s | step 0.09s | KE 316.8659 | drift +17.00% | fluid 72.4308 | solid 244.4351
  Impulse FP iterations last/mean/max 7/7.37/8
Step  1900/2000   95.0% | t 95.000 | ETA 10s | step 0.08s | KE 321.0475 | drift +18.55% | fluid 72.4239 | solid 248.6237
  Impulse FP iterations last/mean/max 7/7.35/8
Solver finished successfully - good job!
Results saved successfully.

================== Run summary ==================
  Bodies:            2
  Triangles / nodes: 256 / 516
  Timesteps:         2000  (dt = 0.05)
  Simulated time:    0 -> 100
  First-step setup:  0.231 s
  Mean time/step:    0.1017 s  (excl. first step)
  Total wall time:   3m 23s
  Impulse FP iters last/mean/max: 7 / 7.334 / 8
  Approx impulse solves/step:     7.334
  Impulse start cache hits/direct: 1999 / 1
  Impulse global drift P/H:       2.578667e-8 / 1.196421e-2
  Impulse per-body max drift P/H: 3.607623e-8 / 1.274059e-3
  CPU cores:         256 available, 8 Rayon worker thread(s)
  Started:           2026-06-24 02:43:21
  Finished:          2026-06-24 02:46:45
  Output file:       /work/e643/e643/shared/multi_ellip/studies/departing_sphericity_sweep/runs/triaxial/heterogeneous_sphere/triaxial_heterogeneous_sphere_eps0p003_rho1_E0p5_sep8_run01_impulse_noproj/multiple_body_complete.dat
================================================
