
================ Simulation setup ================
  Run label:         /work/e643/e643/shared/multi_ellip/studies/two_body_paper_sweeps/runs/spheroid_1_0p7_0p7/spheroid_1_0p7_0p7_rho0p3_E11_sep3_run05_impulse_noproj/
  Started:           2026-06-24 01:52:41
  Input file:        /work/e643/e643/shared/multi_ellip/studies/two_body_paper_sweeps/runs/spheroid_1_0p7_0p7/spheroid_1_0p7_0p7_rho0p3_E11_sep3_run05_impulse_noproj/input.txt
  Output file:       /work/e643/e643/shared/multi_ellip/studies/two_body_paper_sweeps/runs/spheroid_1_0p7_0p7/spheroid_1_0p7_0p7_rho0p3_E11_sep3_run05_impulse_noproj/multiple_body_complete.dat
  Bodies:            2
  Fluid density:     1
  Mesh:              ndiv 2 -> 256 triangles / 516 nodes
  Simulated time:    0 -> 100  (dt = 0.05, ~2000 steps)
  Output cadence:    every 1 step(s)
  Output rows:       ~2001
  Progress cadence:  every 100 step(s)
  CPU cores:         256 available, 8 Rayon worker thread(s)
  Strong coupling:   disabled
  Impulse scheme:    enabled
  Hamiltonian step:  disabled
  Hamiltonian midpt: disabled
  Variational step:  disabled
  Energy projection: disabled
  Projection particular metric: Euclidean
  Fluid KE gradient: disabled  (eps = 0.001, scale = 1, linear = 1, angular = 1)
  Fluid KE discrete gradient: disabled
  Impulse pair metric correction: disabled  (mode = pair discrete-gradient, cutoff = all pairs, inner/outer = 0/0, eps = 0.001, linear scale = 1, angular scale = 0)
  Impulse metric correction: disabled  (internal load constraint = disabled)
  Impulse variational defect probe: disabled
  Impulse quadratic pressure: disabled  (scale = 1)
  Added-mass stab:   disabled
  Exact BEM geometry: disabled
  Exact singular BEM: disabled
  Legacy singular SLP diagnostic: disabled
  Phi-dot blend:     0 (off)

  Solver guidance:
    - Strong coupling: use for stiff close-coupled runs; slower but more implicit.
    - Impulse scheme: use when impulse/momentum conservation or KE drift is the focus. Recommended.
    - Added-mass stab: use for higher mesh counts (ndiv > 3) to preserve stability - deprecated.
================================================
Solver starting - good luck!

Initial state:
  Body  1
    density:          0.300000
    shape axes ratio: (1.000000, 0.700000, 0.700000)
    initial KE ratio: 11.000000
    position:         (-1.500000, 0.000000, 0.000000)
    velocity:         (0.743769, -0.674475, 0.364820)
    angular velocity: (6.232682, -0.079407, 0.791068)
    orientation:      (w=0.498743, i=-0.395933, j=0.752646, k=0.167384)
  Body  2
    density:          0.300000
    shape axes ratio: (1.000000, 0.700000, 0.700000)
    initial KE ratio: 11.000000
    position:         (1.500000, 0.000000, 0.000000)
    velocity:         (0.889411, -0.806548, 0.436258)
    angular velocity: (2.440574, 0.343261, -5.779636)
    orientation:      (w=-0.484658, i=-0.389780, j=0.334223, k=0.708148)

Preparing first step: implicit scheme, no bootstrap passes required.
First step may take longer than later steps.

First step completed in 0.298 s.

Step   100/2000    5.0% | t 5.000 | ETA 5m 39s | step 0.18s | KE 31.2788 | drift -11.06% | fluid 9.0896 | solid 22.1892
  Impulse FP iterations last/mean/max 12/12.46/14
Step   200/2000   10.0% | t 10.000 | ETA 5m 13s | step 0.16s | KE 29.9401 | drift -14.87% | fluid 8.8094 | solid 21.1307
  Impulse FP iterations last/mean/max 12/12.05/14
Step   300/2000   15.0% | t 15.000 | ETA 4m 51s | step 0.15s | KE 29.3953 | drift -16.42% | fluid 8.6854 | solid 20.7099
  Impulse FP iterations last/mean/max 11/11.90/14
Step   400/2000   20.0% | t 20.000 | ETA 4m 30s | step 0.17s | KE 29.3772 | drift -16.47% | fluid 8.7005 | solid 20.6767
  Impulse FP iterations last/mean/max 11/11.71/14
Step   500/2000   25.0% | t 25.000 | ETA 4m 10s | step 0.14s | KE 29.4493 | drift -16.26% | fluid 8.7069 | solid 20.7424
  Impulse FP iterations last/mean/max 11/11.60/14
Step   600/2000   30.0% | t 30.000 | ETA 3m 51s | step 0.13s | KE 29.5662 | drift -15.93% | fluid 8.7361 | solid 20.8301
  Impulse FP iterations last/mean/max 10/11.48/14
Step   700/2000   35.0% | t 35.000 | ETA 3m 33s | step 0.15s | KE 29.5912 | drift -15.86% | fluid 8.7418 | solid 20.8494
  Impulse FP iterations last/mean/max 11/11.40/14
Step   800/2000   40.0% | t 40.000 | ETA 3m 15s | step 0.16s | KE 29.5848 | drift -15.88% | fluid 8.7287 | solid 20.8562
  Impulse FP iterations last/mean/max 11/11.34/14
Step   900/2000   45.0% | t 45.000 | ETA 2m 58s | step 0.15s | KE 29.6026 | drift -15.83% | fluid 8.7440 | solid 20.8587
  Impulse FP iterations last/mean/max 11/11.29/14
Step  1000/2000   50.0% | t 50.000 | ETA 2m 41s | step 0.15s | KE 29.5887 | drift -15.87% | fluid 8.7312 | solid 20.8575
  Impulse FP iterations last/mean/max 11/11.25/14
Step  1100/2000   55.0% | t 55.000 | ETA 2m 24s | step 0.16s | KE 29.6463 | drift -15.70% | fluid 8.7584 | solid 20.8879
  Impulse FP iterations last/mean/max 11/11.22/14
Step  1200/2000   60.0% | t 60.000 | ETA 2m 8s | step 0.16s | KE 29.6329 | drift -15.74% | fluid 8.7437 | solid 20.8891
  Impulse FP iterations last/mean/max 11/11.19/14
Step  1300/2000   65.0% | t 65.000 | ETA 1m 52s | step 0.16s | KE 29.6836 | drift -15.60% | fluid 8.7666 | solid 20.9170
  Impulse FP iterations last/mean/max 11/11.17/14
Step  1400/2000   70.0% | t 70.000 | ETA 1m 35s | step 0.15s | KE 29.6487 | drift -15.70% | fluid 8.7377 | solid 20.9110
  Impulse FP iterations last/mean/max 11/11.15/14
Step  1500/2000   75.0% | t 75.000 | ETA 1m 19s | step 0.15s | KE 29.6844 | drift -15.59% | fluid 8.7665 | solid 20.9179
  Impulse FP iterations last/mean/max 11/11.13/14
Step  1600/2000   80.0% | t 80.000 | ETA 1m 3s | step 0.15s | KE 29.6526 | drift -15.68% | fluid 8.7366 | solid 20.9159
  Impulse FP iterations last/mean/max 11/11.12/14
Step  1700/2000   85.0% | t 85.000 | ETA 47s | step 0.16s | KE 29.6880 | drift -15.58% | fluid 8.7770 | solid 20.9110
  Impulse FP iterations last/mean/max 11/11.10/14
Step  1800/2000   90.0% | t 90.000 | ETA 31s | step 0.16s | KE 29.6582 | drift -15.67% | fluid 8.7410 | solid 20.9172
  Impulse FP iterations last/mean/max 11/11.09/14
Step  1900/2000   95.0% | t 95.000 | ETA 15s | step 0.15s | KE 29.6839 | drift -15.60% | fluid 8.7716 | solid 20.9123
  Impulse FP iterations last/mean/max 11/11.08/14
Solver finished successfully - good job!
Results saved successfully.

================== Run summary ==================
  Bodies:            2
  Triangles / nodes: 256 / 516
  Timesteps:         2000  (dt = 0.05)
  Simulated time:    0 -> 100
  First-step setup:  0.298 s
  Mean time/step:    0.1584 s  (excl. first step)
  Total wall time:   5m 17s
  Impulse FP iters last/mean/max: 11 / 11.069 / 14
  Approx impulse solves/step:     11.070
  Impulse start cache hits/direct: 1999 / 1
  Impulse global drift P/H:       3.212682e-8 / 1.219850e-2
  Impulse per-body max drift P/H: 6.068424e-8 / 8.197651e-3
  CPU cores:         256 available, 8 Rayon worker thread(s)
  Started:           2026-06-24 01:52:41
  Finished:          2026-06-24 01:57:58
  Output file:       /work/e643/e643/shared/multi_ellip/studies/two_body_paper_sweeps/runs/spheroid_1_0p7_0p7/spheroid_1_0p7_0p7_rho0p3_E11_sep3_run05_impulse_noproj/multiple_body_complete.dat
================================================
