
================ Simulation setup ================
  Run label:         /work/e643/e643/shared/multi_ellip/studies/two_body_paper_sweeps/runs/ellipsoid_1_0p8_0p6/ellipsoid_1_0p8_0p6_rho4_E1p5_sep8_run02_impulse_noproj/
  Started:           2026-06-22 19:30:41
  Input file:        /work/e643/e643/shared/multi_ellip/studies/two_body_paper_sweeps/runs/ellipsoid_1_0p8_0p6/ellipsoid_1_0p8_0p6_rho4_E1p5_sep8_run02_impulse_noproj/input.txt
  Output file:       /work/e643/e643/shared/multi_ellip/studies/two_body_paper_sweeps/runs/ellipsoid_1_0p8_0p6/ellipsoid_1_0p8_0p6_rho4_E1p5_sep8_run02_impulse_noproj/multiple_body_complete.dat
  Bodies:            2
  Fluid density:     1
  Mesh:              ndiv 2 -> 256 triangles / 516 nodes
  Simulated time:    0 -> 100  (dt = 0.05, ~2000 steps)
  Output cadence:    every 1 step(s)
  Output rows:       ~2001
  Progress cadence:  every 100 step(s)
  CPU cores:         256 available, 8 Rayon worker thread(s)
  Strong coupling:   disabled
  Impulse scheme:    enabled
  Hamiltonian step:  disabled
  Hamiltonian midpt: disabled
  Variational step:  disabled
  Energy projection: disabled
  Projection particular metric: Euclidean
  Fluid KE gradient: disabled  (eps = 0.001, scale = 1, linear = 1, angular = 1)
  Fluid KE discrete gradient: disabled
  Impulse pair metric correction: disabled  (mode = pair discrete-gradient, cutoff = all pairs, inner/outer = 0/0, eps = 0.001, linear scale = 1, angular scale = 0)
  Impulse metric correction: disabled  (internal load constraint = disabled)
  Impulse variational defect probe: disabled
  Impulse quadratic pressure: disabled  (scale = 1)
  Added-mass stab:   disabled
  Exact BEM geometry: disabled
  Exact singular BEM: disabled
  Legacy singular SLP diagnostic: disabled
  Phi-dot blend:     0 (off)

  Solver guidance:
    - Strong coupling: use for stiff close-coupled runs; slower but more implicit.
    - Impulse scheme: use when impulse/momentum conservation or KE drift is the focus. Recommended.
    - Added-mass stab: use for higher mesh counts (ndiv > 3) to preserve stability - deprecated.
================================================
Solver starting - good luck!

Initial state:
  Body  1
    density:          4.000000
    shape axes ratio: (1.000000, 0.800000, 0.600000)
    initial KE ratio: 1.500000
    position:         (-4.000000, 0.000000, 0.000000)
    velocity:         (-0.512866, -0.337288, 3.492453)
    angular velocity: (1.909618, -4.051989, -4.406037)
    orientation:      (w=0.577350, i=0.577350, j=0.577350, k=0.000000)
  Body  2
    density:          4.000000
    shape axes ratio: (1.000000, 0.800000, 0.600000)
    initial KE ratio: 1.500000
    position:         (4.000000, 0.000000, 0.000000)
    velocity:         (-0.447353, -0.294203, 3.046325)
    angular velocity: (-5.587783, 1.663712, -2.342470)
    orientation:      (w=0.577350, i=-0.577350, j=0.000000, k=0.577350)

Preparing first step: implicit scheme, no bootstrap passes required.
First step may take longer than later steps.

First step completed in 0.232 s.

Step   100/2000    5.0% | t 5.000 | ETA 3m 35s | step 0.11s | KE 541.1820 | drift +0.02% | fluid 35.5799 | solid 505.6021
  Impulse FP iterations last/mean/max 9/8.45/9
Step   200/2000   10.0% | t 10.000 | ETA 3m 26s | step 0.10s | KE 540.7461 | drift -0.06% | fluid 27.1674 | solid 513.5788
  Impulse FP iterations last/mean/max 8/8.49/9
Step   300/2000   15.0% | t 15.000 | ETA 3m 14s | step 0.13s | KE 539.2365 | drift -0.34% | fluid 32.3364 | solid 506.9001
  Impulse FP iterations last/mean/max 9/8.48/9
Step   400/2000   20.0% | t 20.000 | ETA 3m 3s | step 0.11s | KE 539.0696 | drift -0.37% | fluid 27.6428 | solid 511.4267
  Impulse FP iterations last/mean/max 8/8.49/9
Step   500/2000   25.0% | t 25.000 | ETA 2m 52s | step 0.12s | KE 539.7372 | drift -0.25% | fluid 32.0386 | solid 507.6986
  Impulse FP iterations last/mean/max 9/8.49/9
Step   600/2000   30.0% | t 30.000 | ETA 2m 40s | step 0.12s | KE 540.5091 | drift -0.11% | fluid 30.6072 | solid 509.9018
  Impulse FP iterations last/mean/max 9/8.49/9
Step   700/2000   35.0% | t 35.000 | ETA 2m 29s | step 0.13s | KE 540.8376 | drift -0.05% | fluid 37.8121 | solid 503.0255
  Impulse FP iterations last/mean/max 9/8.50/9
Step   800/2000   40.0% | t 40.000 | ETA 2m 17s | step 0.12s | KE 541.2660 | drift +0.03% | fluid 28.1919 | solid 513.0741
  Impulse FP iterations last/mean/max 9/8.49/9
Step   900/2000   45.0% | t 45.000 | ETA 2m 5s | step 0.13s | KE 541.3353 | drift +0.04% | fluid 29.3105 | solid 512.0247
  Impulse FP iterations last/mean/max 9/8.49/9
Step  1000/2000   50.0% | t 50.000 | ETA 1m 54s | step 0.10s | KE 541.3683 | drift +0.05% | fluid 24.9088 | solid 516.4595
  Impulse FP iterations last/mean/max 8/8.49/9
Step  1100/2000   55.0% | t 55.000 | ETA 1m 43s | step 0.10s | KE 541.4891 | drift +0.07% | fluid 29.2006 | solid 512.2885
  Impulse FP iterations last/mean/max 8/8.49/9
Step  1200/2000   60.0% | t 60.000 | ETA 1m 31s | step 0.11s | KE 541.7263 | drift +0.12% | fluid 24.2456 | solid 517.4807
  Impulse FP iterations last/mean/max 8/8.50/9
Step  1300/2000   65.0% | t 65.000 | ETA 1m 19s | step 0.10s | KE 541.6750 | drift +0.11% | fluid 31.9518 | solid 509.7231
  Impulse FP iterations last/mean/max 8/8.50/9
Step  1400/2000   70.0% | t 70.000 | ETA 1m 7s | step 0.09s | KE 541.6443 | drift +0.10% | fluid 29.2758 | solid 512.3684
  Impulse FP iterations last/mean/max 8/8.50/9
Step  1500/2000   75.0% | t 75.000 | ETA 56s | step 0.11s | KE 541.6610 | drift +0.10% | fluid 30.8388 | solid 510.8223
  Impulse FP iterations last/mean/max 9/8.50/9
Step  1600/2000   80.0% | t 80.000 | ETA 44s | step 0.10s | KE 541.7755 | drift +0.13% | fluid 24.1578 | solid 517.6177
  Impulse FP iterations last/mean/max 8/8.50/9
Step  1700/2000   85.0% | t 85.000 | ETA 33s | step 0.12s | KE 541.5961 | drift +0.09% | fluid 33.2541 | solid 508.3420
  Impulse FP iterations last/mean/max 9/8.50/9
Step  1800/2000   90.0% | t 90.000 | ETA 22s | step 0.11s | KE 541.7121 | drift +0.11% | fluid 30.3531 | solid 511.3590
  Impulse FP iterations last/mean/max 8/8.50/9
Step  1900/2000   95.0% | t 95.000 | ETA 11s | step 0.13s | KE 541.7399 | drift +0.12% | fluid 33.8665 | solid 507.8734
  Impulse FP iterations last/mean/max 9/8.50/9
Solver finished successfully - good job!
Results saved successfully.

================== Run summary ==================
  Bodies:            2
  Triangles / nodes: 256 / 516
  Timesteps:         2000  (dt = 0.05)
  Simulated time:    0 -> 100
  First-step setup:  0.232 s
  Mean time/step:    0.1126 s  (excl. first step)
  Total wall time:   3m 45s
  Impulse FP iters last/mean/max: 9 / 8.503 / 9
  Approx impulse solves/step:     8.504
  Impulse start cache hits/direct: 1999 / 1
  Impulse global drift P/H:       8.268828e-9 / 2.174484e-2
  Impulse per-body max drift P/H: 1.593387e-8 / 4.612312e-3
  CPU cores:         256 available, 8 Rayon worker thread(s)
  Started:           2026-06-22 19:30:41
  Finished:          2026-06-22 19:34:26
  Output file:       /work/e643/e643/shared/multi_ellip/studies/two_body_paper_sweeps/runs/ellipsoid_1_0p8_0p6/ellipsoid_1_0p8_0p6_rho4_E1p5_sep8_run02_impulse_noproj/multiple_body_complete.dat
================================================
