
================ Simulation setup ================
  Run label:         /work/e643/e643/shared/multi_ellip/studies/two_body_paper_sweeps/runs/spheroid_1_0p7_0p7/spheroid_1_0p7_0p7_rho10_E0p2_sep3_run04_impulse_noproj/
  Started:           2026-06-24 01:15:05
  Input file:        /work/e643/e643/shared/multi_ellip/studies/two_body_paper_sweeps/runs/spheroid_1_0p7_0p7/spheroid_1_0p7_0p7_rho10_E0p2_sep3_run04_impulse_noproj/input.txt
  Output file:       /work/e643/e643/shared/multi_ellip/studies/two_body_paper_sweeps/runs/spheroid_1_0p7_0p7/spheroid_1_0p7_0p7_rho10_E0p2_sep3_run04_impulse_noproj/multiple_body_complete.dat
  Bodies:            2
  Fluid density:     1
  Mesh:              ndiv 2 -> 256 triangles / 516 nodes
  Simulated time:    0 -> 100  (dt = 0.05, ~2000 steps)
  Output cadence:    every 1 step(s)
  Output rows:       ~2001
  Progress cadence:  every 100 step(s)
  CPU cores:         256 available, 8 Rayon worker thread(s)
  Strong coupling:   disabled
  Impulse scheme:    enabled
  Hamiltonian step:  disabled
  Hamiltonian midpt: disabled
  Variational step:  disabled
  Energy projection: disabled
  Projection particular metric: Euclidean
  Fluid KE gradient: disabled  (eps = 0.001, scale = 1, linear = 1, angular = 1)
  Fluid KE discrete gradient: disabled
  Impulse pair metric correction: disabled  (mode = pair discrete-gradient, cutoff = all pairs, inner/outer = 0/0, eps = 0.001, linear scale = 1, angular scale = 0)
  Impulse metric correction: disabled  (internal load constraint = disabled)
  Impulse variational defect probe: disabled
  Impulse quadratic pressure: disabled  (scale = 1)
  Added-mass stab:   disabled
  Exact BEM geometry: disabled
  Exact singular BEM: disabled
  Legacy singular SLP diagnostic: disabled
  Phi-dot blend:     0 (off)

  Solver guidance:
    - Strong coupling: use for stiff close-coupled runs; slower but more implicit.
    - Impulse scheme: use when impulse/momentum conservation or KE drift is the focus. Recommended.
    - Added-mass stab: use for higher mesh counts (ndiv > 3) to preserve stability - deprecated.
================================================
Solver starting - good luck!

Initial state:
  Body  1
    density:          10.000000
    shape axes ratio: (1.000000, 0.700000, 0.700000)
    initial KE ratio: 0.200000
    position:         (-1.500000, 0.000000, 0.000000)
    velocity:         (3.209828, 3.990641, -7.952656)
    angular velocity: (-2.509772, -3.906397, 4.233146)
    orientation:      (w=0.098342, i=-0.506057, j=-0.575549, k=0.634806)
  Body  2
    density:          10.000000
    shape axes ratio: (1.000000, 0.700000, 0.700000)
    initial KE ratio: 0.200000
    position:         (1.500000, 0.000000, 0.000000)
    velocity:         (3.155993, 3.923711, -7.819277)
    angular velocity: (-3.150533, -5.326474, 1.086847)
    orientation:      (w=-0.851968, i=0.043343, j=-0.000637, k=-0.521796)

Preparing first step: implicit scheme, no bootstrap passes required.
First step may take longer than later steps.

First step completed in 7.376 s.

Step   100/2000    5.0% | t 5.000 | ETA 3m 26s | step 0.13s | KE 4920.1284 | drift +9.08% | fluid 280.3154 | solid 4639.8130
  Impulse FP iterations last/mean/max 8/7.32/14
Step   200/2000   10.0% | t 10.000 | ETA 3m 43s | step 0.12s | KE 8254.3875 | drift +83.00% | fluid 389.8011 | solid 7864.5864
  Impulse FP iterations last/mean/max 8/8.10/30
Step   300/2000   15.0% | t 15.000 | ETA 3m 18s | step 0.11s | KE 8258.2274 | drift +83.08% | fluid 330.4753 | solid 7927.7521
  Impulse FP iterations last/mean/max 7/7.79/30
Step   400/2000   20.0% | t 20.000 | ETA 3m 0s | step 0.09s | KE 8258.7927 | drift +83.09% | fluid 307.1716 | solid 7951.6211
  Impulse FP iterations last/mean/max 7/7.63/30
Step   500/2000   25.0% | t 25.000 | ETA 2m 46s | step 0.12s | KE 8255.7166 | drift +83.03% | fluid 407.2378 | solid 7848.4788
  Impulse FP iterations last/mean/max 8/7.54/30
Step   600/2000   30.0% | t 30.000 | ETA 2m 32s | step 0.10s | KE 8257.0466 | drift +83.06% | fluid 337.1299 | solid 7919.9167
  Impulse FP iterations last/mean/max 7/7.48/30
Step   700/2000   35.0% | t 35.000 | ETA 2m 20s | step 0.10s | KE 8259.2043 | drift +83.10% | fluid 290.8653 | solid 7968.3390
  Impulse FP iterations last/mean/max 7/7.44/30
Step   800/2000   40.0% | t 40.000 | ETA 2m 8s | step 0.10s | KE 8256.9756 | drift +83.05% | fluid 412.2251 | solid 7844.7505
  Impulse FP iterations last/mean/max 7/7.41/30
Step   900/2000   45.0% | t 45.000 | ETA 1m 57s | step 0.10s | KE 8256.0807 | drift +83.03% | fluid 339.6550 | solid 7916.4258
  Impulse FP iterations last/mean/max 7/7.38/30
Step  1000/2000   50.0% | t 50.000 | ETA 1m 45s | step 0.09s | KE 8258.8093 | drift +83.10% | fluid 287.2762 | solid 7971.5331
  Impulse FP iterations last/mean/max 7/7.36/30
Step  1100/2000   55.0% | t 55.000 | ETA 1m 34s | step 0.09s | KE 8258.3822 | drift +83.09% | fluid 409.4739 | solid 7848.9082
  Impulse FP iterations last/mean/max 7/7.34/30
Step  1200/2000   60.0% | t 60.000 | ETA 1m 24s | step 0.10s | KE 8255.9946 | drift +83.03% | fluid 335.4697 | solid 7920.5249
  Impulse FP iterations last/mean/max 7/7.33/30
Step  1300/2000   65.0% | t 65.000 | ETA 1m 13s | step 0.10s | KE 8257.8665 | drift +83.07% | fluid 295.0470 | solid 7962.8195
  Impulse FP iterations last/mean/max 7/7.31/30
Step  1400/2000   70.0% | t 70.000 | ETA 1m 2s | step 0.10s | KE 8259.2021 | drift +83.10% | fluid 405.0578 | solid 7854.1443
  Impulse FP iterations last/mean/max 7/7.30/30
Step  1500/2000   75.0% | t 75.000 | ETA 52s | step 0.10s | KE 8256.7074 | drift +83.05% | fluid 326.3430 | solid 7930.3644
  Impulse FP iterations last/mean/max 7/7.30/30
Step  1600/2000   80.0% | t 80.000 | ETA 41s | step 0.09s | KE 8256.8009 | drift +83.05% | fluid 309.2072 | solid 7947.5937
  Impulse FP iterations last/mean/max 7/7.29/30
Step  1700/2000   85.0% | t 85.000 | ETA 31s | step 0.10s | KE 8259.0091 | drift +83.10% | fluid 402.5113 | solid 7856.4978
  Impulse FP iterations last/mean/max 7/7.28/30
Step  1800/2000   90.0% | t 90.000 | ETA 20s | step 0.08s | KE 8257.7645 | drift +83.07% | fluid 317.1939 | solid 7940.5706
  Impulse FP iterations last/mean/max 7/7.27/30
Step  1900/2000   95.0% | t 95.000 | ETA 10s | step 0.07s | KE 8256.1713 | drift +83.04% | fluid 323.1818 | solid 7932.9895
  Impulse FP iterations last/mean/max 7/7.27/30
Solver finished successfully - good job!
Results saved successfully.

================== Run summary ==================
  Bodies:            2
  Triangles / nodes: 256 / 516
  Timesteps:         2000  (dt = 0.05)
  Simulated time:    0 -> 100
  First-step setup:  7.376 s
  Mean time/step:    0.1002 s  (excl. first step)
  Total wall time:   3m 27s
  Impulse FP iters last/mean/max: 8 / 7.264 / 30
  Approx impulse solves/step:     7.265
  Impulse start cache hits/direct: 1999 / 1
  Impulse global drift P/H:       3.759437e-1 / 5.719639e1
  Impulse per-body max drift P/H: 4.140300e-1 / 1.171043e1
  CPU cores:         256 available, 8 Rayon worker thread(s)
  Started:           2026-06-24 01:15:05
  Finished:          2026-06-24 01:18:34
  Output file:       /work/e643/e643/shared/multi_ellip/studies/two_body_paper_sweeps/runs/spheroid_1_0p7_0p7/spheroid_1_0p7_0p7_rho10_E0p2_sep3_run04_impulse_noproj/multiple_body_complete.dat
================================================
