
================ Simulation setup ================
  Run label:         /work/e643/e643/shared/multi_ellip/studies/two_body_paper_sweeps/runs/ellipsoid_1_0p8_0p6/ellipsoid_1_0p8_0p6_rho1_E30_sep8_run01_impulse_noproj/
  Started:           2026-06-22 19:40:05
  Input file:        /work/e643/e643/shared/multi_ellip/studies/two_body_paper_sweeps/runs/ellipsoid_1_0p8_0p6/ellipsoid_1_0p8_0p6_rho1_E30_sep8_run01_impulse_noproj/input.txt
  Output file:       /work/e643/e643/shared/multi_ellip/studies/two_body_paper_sweeps/runs/ellipsoid_1_0p8_0p6/ellipsoid_1_0p8_0p6_rho1_E30_sep8_run01_impulse_noproj/multiple_body_complete.dat
  Bodies:            2
  Fluid density:     1
  Mesh:              ndiv 2 -> 256 triangles / 516 nodes
  Simulated time:    0 -> 100  (dt = 0.05, ~2000 steps)
  Output cadence:    every 1 step(s)
  Output rows:       ~2001
  Progress cadence:  every 100 step(s)
  CPU cores:         256 available, 8 Rayon worker thread(s)
  Strong coupling:   disabled
  Impulse scheme:    enabled
  Hamiltonian step:  disabled
  Hamiltonian midpt: disabled
  Variational step:  disabled
  Energy projection: disabled
  Projection particular metric: Euclidean
  Fluid KE gradient: disabled  (eps = 0.001, scale = 1, linear = 1, angular = 1)
  Fluid KE discrete gradient: disabled
  Impulse pair metric correction: disabled  (mode = pair discrete-gradient, cutoff = all pairs, inner/outer = 0/0, eps = 0.001, linear scale = 1, angular scale = 0)
  Impulse metric correction: disabled  (internal load constraint = disabled)
  Impulse variational defect probe: disabled
  Impulse quadratic pressure: disabled  (scale = 1)
  Added-mass stab:   disabled
  Exact BEM geometry: disabled
  Exact singular BEM: disabled
  Legacy singular SLP diagnostic: disabled
  Phi-dot blend:     0 (off)

  Solver guidance:
    - Strong coupling: use for stiff close-coupled runs; slower but more implicit.
    - Impulse scheme: use when impulse/momentum conservation or KE drift is the focus. Recommended.
    - Added-mass stab: use for higher mesh counts (ndiv > 3) to preserve stability - deprecated.
================================================
Solver starting - good luck!

Initial state:
  Body  1
    density:          1.000000
    shape axes ratio: (1.000000, 0.800000, 0.600000)
    initial KE ratio: 30.000000
    position:         (-4.000000, 0.000000, 0.000000)
    velocity:         (0.161105, 0.787631, 0.067605)
    angular velocity: (1.293154, -3.693913, -4.915402)
    orientation:      (w=0.447214, i=0.894427, j=0.000000, k=0.000000)
  Body  2
    density:          1.000000
    shape axes ratio: (1.000000, 0.800000, 0.600000)
    initial KE ratio: 30.000000
    position:         (4.000000, 0.000000, 0.000000)
    velocity:         (0.156199, 0.763647, 0.065546)
    angular velocity: (-1.818266, -4.767695, -3.666252)
    orientation:      (w=0.707107, i=0.000000, j=0.707107, k=0.000000)

Preparing first step: implicit scheme, no bootstrap passes required.
First step may take longer than later steps.

First step completed in 0.289 s.

Step   100/2000    5.0% | t 5.000 | ETA 4m 44s | step 0.15s | KE 87.6607 | drift +0.09% | fluid 9.1924 | solid 78.4683
  Impulse FP iterations last/mean/max 11/10.89/11
Step   200/2000   10.0% | t 10.000 | ETA 4m 29s | step 0.15s | KE 87.7083 | drift +0.15% | fluid 5.7238 | solid 81.9844
  Impulse FP iterations last/mean/max 11/10.90/11
Step   300/2000   15.0% | t 15.000 | ETA 4m 11s | step 0.13s | KE 87.7109 | drift +0.15% | fluid 5.6651 | solid 82.0458
  Impulse FP iterations last/mean/max 10/10.89/11
Step   400/2000   20.0% | t 20.000 | ETA 3m 51s | step 0.13s | KE 87.6898 | drift +0.13% | fluid 7.1735 | solid 80.5163
  Impulse FP iterations last/mean/max 11/10.88/11
Step   500/2000   25.0% | t 25.000 | ETA 3m 31s | step 0.12s | KE 87.6683 | drift +0.10% | fluid 8.3645 | solid 79.3038
  Impulse FP iterations last/mean/max 11/10.88/11
Step   600/2000   30.0% | t 30.000 | ETA 3m 18s | step 0.15s | KE 87.6493 | drift +0.08% | fluid 8.8517 | solid 78.7976
  Impulse FP iterations last/mean/max 11/10.87/11
Step   700/2000   35.0% | t 35.000 | ETA 3m 4s | step 0.14s | KE 87.6406 | drift +0.07% | fluid 5.7402 | solid 81.9004
  Impulse FP iterations last/mean/max 11/10.87/11
Step   800/2000   40.0% | t 40.000 | ETA 2m 51s | step 0.12s | KE 87.6353 | drift +0.07% | fluid 5.5453 | solid 82.0899
  Impulse FP iterations last/mean/max 10/10.88/11
Step   900/2000   45.0% | t 45.000 | ETA 2m 37s | step 0.15s | KE 87.6258 | drift +0.05% | fluid 6.4203 | solid 81.2055
  Impulse FP iterations last/mean/max 11/10.86/11
Step  1000/2000   50.0% | t 50.000 | ETA 2m 23s | step 0.14s | KE 87.6267 | drift +0.06% | fluid 7.6683 | solid 79.9584
  Impulse FP iterations last/mean/max 11/10.87/11
Step  1100/2000   55.0% | t 55.000 | ETA 2m 9s | step 0.15s | KE 87.6251 | drift +0.05% | fluid 9.3668 | solid 78.2583
  Impulse FP iterations last/mean/max 11/10.86/11
Step  1200/2000   60.0% | t 60.000 | ETA 1m 54s | step 0.14s | KE 87.6303 | drift +0.06% | fluid 6.8848 | solid 80.7455
  Impulse FP iterations last/mean/max 11/10.86/11
Step  1300/2000   65.0% | t 65.000 | ETA 1m 40s | step 0.15s | KE 87.6363 | drift +0.07% | fluid 5.9112 | solid 81.7251
  Impulse FP iterations last/mean/max 11/10.86/11
Step  1400/2000   70.0% | t 70.000 | ETA 1m 26s | step 0.14s | KE 87.6364 | drift +0.07% | fluid 6.1290 | solid 81.5074
  Impulse FP iterations last/mean/max 10/10.85/11
Step  1500/2000   75.0% | t 75.000 | ETA 1m 11s | step 0.14s | KE 87.6424 | drift +0.07% | fluid 7.5771 | solid 80.0654
  Impulse FP iterations last/mean/max 11/10.84/11
Step  1600/2000   80.0% | t 80.000 | ETA 57s | step 0.14s | KE 87.6418 | drift +0.07% | fluid 9.2503 | solid 78.3915
  Impulse FP iterations last/mean/max 11/10.85/11
Step  1700/2000   85.0% | t 85.000 | ETA 42s | step 0.13s | KE 87.6458 | drift +0.08% | fluid 5.9605 | solid 81.6852
  Impulse FP iterations last/mean/max 11/10.85/11
Step  1800/2000   90.0% | t 90.000 | ETA 28s | step 0.14s | KE 87.6440 | drift +0.08% | fluid 5.8099 | solid 81.8340
  Impulse FP iterations last/mean/max 10/10.85/11
Step  1900/2000   95.0% | t 95.000 | ETA 14s | step 0.15s | KE 87.6414 | drift +0.07% | fluid 7.8682 | solid 79.7731
  Impulse FP iterations last/mean/max 11/10.85/11
Solver finished successfully - good job!
Results saved successfully.

================== Run summary ==================
  Bodies:            2
  Triangles / nodes: 256 / 516
  Timesteps:         2000  (dt = 0.05)
  Simulated time:    0 -> 100
  First-step setup:  0.289 s
  Mean time/step:    0.1426 s  (excl. first step)
  Total wall time:   4m 45s
  Impulse FP iters last/mean/max: 11 / 10.848 / 11
  Approx impulse solves/step:     10.849
  Impulse start cache hits/direct: 1999 / 1
  Impulse global drift P/H:       1.462791e-8 / 9.758997e-3
  Impulse per-body max drift P/H: 1.812831e-8 / 5.820827e-3
  CPU cores:         256 available, 8 Rayon worker thread(s)
  Started:           2026-06-22 19:40:05
  Finished:          2026-06-22 19:44:50
  Output file:       /work/e643/e643/shared/multi_ellip/studies/two_body_paper_sweeps/runs/ellipsoid_1_0p8_0p6/ellipsoid_1_0p8_0p6_rho1_E30_sep8_run01_impulse_noproj/multiple_body_complete.dat
================================================
