
================ Simulation setup ================
  Run label:         /work/e643/e643/shared/multi_ellip/studies/two_body_paper_sweeps/runs/ellipsoid_1_0p8_0p6/ellipsoid_1_0p8_0p6_rho10_E1p5_sep11_run03_impulse_noproj/
  Started:           2026-06-24 01:21:16
  Input file:        /work/e643/e643/shared/multi_ellip/studies/two_body_paper_sweeps/runs/ellipsoid_1_0p8_0p6/ellipsoid_1_0p8_0p6_rho10_E1p5_sep11_run03_impulse_noproj/input.txt
  Output file:       /work/e643/e643/shared/multi_ellip/studies/two_body_paper_sweeps/runs/ellipsoid_1_0p8_0p6/ellipsoid_1_0p8_0p6_rho10_E1p5_sep11_run03_impulse_noproj/multiple_body_complete.dat
  Bodies:            2
  Fluid density:     1
  Mesh:              ndiv 2 -> 256 triangles / 516 nodes
  Simulated time:    0 -> 100  (dt = 0.05, ~2000 steps)
  Output cadence:    every 1 step(s)
  Output rows:       ~2001
  Progress cadence:  every 100 step(s)
  CPU cores:         256 available, 8 Rayon worker thread(s)
  Strong coupling:   disabled
  Impulse scheme:    enabled
  Hamiltonian step:  disabled
  Hamiltonian midpt: disabled
  Variational step:  disabled
  Energy projection: disabled
  Projection particular metric: Euclidean
  Fluid KE gradient: disabled  (eps = 0.001, scale = 1, linear = 1, angular = 1)
  Fluid KE discrete gradient: disabled
  Impulse pair metric correction: disabled  (mode = pair discrete-gradient, cutoff = all pairs, inner/outer = 0/0, eps = 0.001, linear scale = 1, angular scale = 0)
  Impulse metric correction: disabled  (internal load constraint = disabled)
  Impulse variational defect probe: disabled
  Impulse quadratic pressure: disabled  (scale = 1)
  Added-mass stab:   disabled
  Exact BEM geometry: disabled
  Exact singular BEM: disabled
  Legacy singular SLP diagnostic: disabled
  Phi-dot blend:     0 (off)

  Solver guidance:
    - Strong coupling: use for stiff close-coupled runs; slower but more implicit.
    - Impulse scheme: use when impulse/momentum conservation or KE drift is the focus. Recommended.
    - Added-mass stab: use for higher mesh counts (ndiv > 3) to preserve stability - deprecated.
================================================
Solver starting - good luck!

Initial state:
  Body  1
    density:          10.000000
    shape axes ratio: (1.000000, 0.800000, 0.600000)
    initial KE ratio: 1.500000
    position:         (-5.500000, 0.000000, 0.000000)
    velocity:         (-2.988966, 1.537338, -1.226298)
    angular velocity: (0.252819, -4.569272, -4.305375)
    orientation:      (w=-0.100996, i=-0.420996, j=-0.863135, k=-0.259925)
  Body  2
    density:          10.000000
    shape axes ratio: (1.000000, 0.800000, 0.600000)
    initial KE ratio: 1.500000
    position:         (5.500000, 0.000000, 0.000000)
    velocity:         (-2.474397, 1.272676, -1.015183)
    angular velocity: (-6.103744, 1.419529, 0.455696)
    orientation:      (w=-0.593389, i=0.407813, j=-0.525247, k=0.453534)

Preparing first step: implicit scheme, no bootstrap passes required.
First step may take longer than later steps.

First step completed in 0.209 s.

Step   100/2000    5.0% | t 5.000 | ETA 2m 45s | step 0.11s | KE 1246.8784 | drift -0.09% | fluid 35.2623 | solid 1211.6162
  Impulse FP iterations last/mean/max 8/7.23/8
Step   200/2000   10.0% | t 10.000 | ETA 2m 51s | step 0.11s | KE 1246.1256 | drift -0.15% | fluid 39.8122 | solid 1206.3134
  Impulse FP iterations last/mean/max 8/7.22/8
Step   300/2000   15.0% | t 15.000 | ETA 2m 45s | step 0.12s | KE 1245.7355 | drift -0.18% | fluid 41.2093 | solid 1204.5262
  Impulse FP iterations last/mean/max 8/7.23/8
Step   400/2000   20.0% | t 20.000 | ETA 2m 37s | step 0.10s | KE 1245.7307 | drift -0.18% | fluid 36.3557 | solid 1209.3750
  Impulse FP iterations last/mean/max 7/7.22/8
Step   500/2000   25.0% | t 25.000 | ETA 2m 29s | step 0.10s | KE 1245.7959 | drift -0.17% | fluid 29.4246 | solid 1216.3714
  Impulse FP iterations last/mean/max 7/7.23/8
Step   600/2000   30.0% | t 30.000 | ETA 2m 19s | step 0.09s | KE 1245.6538 | drift -0.19% | fluid 30.4936 | solid 1215.1602
  Impulse FP iterations last/mean/max 7/7.22/8
Step   700/2000   35.0% | t 35.000 | ETA 2m 10s | step 0.10s | KE 1245.5143 | drift -0.20% | fluid 33.4145 | solid 1212.0997
  Impulse FP iterations last/mean/max 7/7.23/8
Step   800/2000   40.0% | t 40.000 | ETA 2m 0s | step 0.09s | KE 1245.5331 | drift -0.20% | fluid 30.0881 | solid 1215.4450
  Impulse FP iterations last/mean/max 7/7.23/8
Step   900/2000   45.0% | t 45.000 | ETA 1m 50s | step 0.11s | KE 1245.4804 | drift -0.20% | fluid 31.6528 | solid 1213.8276
  Impulse FP iterations last/mean/max 8/7.24/8
Step  1000/2000   50.0% | t 50.000 | ETA 1m 41s | step 0.10s | KE 1245.2923 | drift -0.22% | fluid 39.9214 | solid 1205.3710
  Impulse FP iterations last/mean/max 8/7.24/8
Step  1100/2000   55.0% | t 55.000 | ETA 1m 31s | step 0.09s | KE 1245.3783 | drift -0.21% | fluid 36.7146 | solid 1208.6637
  Impulse FP iterations last/mean/max 7/7.23/8
Step  1200/2000   60.0% | t 60.000 | ETA 1m 20s | step 0.10s | KE 1245.6078 | drift -0.19% | fluid 32.0269 | solid 1213.5810
  Impulse FP iterations last/mean/max 7/7.23/8
Step  1300/2000   65.0% | t 65.000 | ETA 1m 10s | step 0.10s | KE 1245.6384 | drift -0.19% | fluid 32.7409 | solid 1212.8975
  Impulse FP iterations last/mean/max 7/7.23/8
Step  1400/2000   70.0% | t 70.000 | ETA 1m 0s | step 0.12s | KE 1245.4466 | drift -0.20% | fluid 35.3957 | solid 1210.0509
  Impulse FP iterations last/mean/max 8/7.24/8
Step  1500/2000   75.0% | t 75.000 | ETA 50s | step 0.10s | KE 1245.3067 | drift -0.21% | fluid 39.2904 | solid 1206.0163
  Impulse FP iterations last/mean/max 7/7.23/8
Step  1600/2000   80.0% | t 80.000 | ETA 40s | step 0.10s | KE 1245.3699 | drift -0.21% | fluid 37.4800 | solid 1207.8899
  Impulse FP iterations last/mean/max 7/7.23/8
Step  1700/2000   85.0% | t 85.000 | ETA 30s | step 0.10s | KE 1245.5461 | drift -0.19% | fluid 29.0306 | solid 1216.5155
  Impulse FP iterations last/mean/max 7/7.23/8
Step  1800/2000   90.0% | t 90.000 | ETA 20s | step 0.09s | KE 1245.5599 | drift -0.19% | fluid 29.8609 | solid 1215.6989
  Impulse FP iterations last/mean/max 7/7.23/8
Step  1900/2000   95.0% | t 95.000 | ETA 10s | step 0.10s | KE 1245.5422 | drift -0.20% | fluid 31.4229 | solid 1214.1193
  Impulse FP iterations last/mean/max 7/7.23/8
Solver finished successfully - good job!
Results saved successfully.

================== Run summary ==================
  Bodies:            2
  Triangles / nodes: 256 / 516
  Timesteps:         2000  (dt = 0.05)
  Simulated time:    0 -> 100
  First-step setup:  0.209 s
  Mean time/step:    0.1017 s  (excl. first step)
  Total wall time:   3m 23s
  Impulse FP iters last/mean/max: 7 / 7.234 / 8
  Approx impulse solves/step:     7.234
  Impulse start cache hits/direct: 1999 / 1
  Impulse global drift P/H:       3.002273e-9 / 7.001743e-3
  Impulse per-body max drift P/H: 5.587186e-9 / 3.125791e-3
  CPU cores:         256 available, 8 Rayon worker thread(s)
  Started:           2026-06-24 01:21:16
  Finished:          2026-06-24 01:24:40
  Output file:       /work/e643/e643/shared/multi_ellip/studies/two_body_paper_sweeps/runs/ellipsoid_1_0p8_0p6/ellipsoid_1_0p8_0p6_rho10_E1p5_sep11_run03_impulse_noproj/multiple_body_complete.dat
================================================
