
================ Simulation setup ================
  Run label:         /work/e643/e643/shared/multi_ellip/studies/two_body_paper_sweeps/runs/spheroid_1_0p7_0p7/spheroid_1_0p7_0p7_rho0p03_E1p5_sep8_run03_impulse_noproj/
  Started:           2026-06-24 02:24:11
  Input file:        /work/e643/e643/shared/multi_ellip/studies/two_body_paper_sweeps/runs/spheroid_1_0p7_0p7/spheroid_1_0p7_0p7_rho0p03_E1p5_sep8_run03_impulse_noproj/input.txt
  Output file:       /work/e643/e643/shared/multi_ellip/studies/two_body_paper_sweeps/runs/spheroid_1_0p7_0p7/spheroid_1_0p7_0p7_rho0p03_E1p5_sep8_run03_impulse_noproj/multiple_body_complete.dat
  Bodies:            2
  Fluid density:     1
  Mesh:              ndiv 2 -> 256 triangles / 516 nodes
  Simulated time:    0 -> 100  (dt = 0.05, ~2000 steps)
  Output cadence:    every 1 step(s)
  Output rows:       ~2001
  Progress cadence:  every 100 step(s)
  CPU cores:         256 available, 8 Rayon worker thread(s)
  Strong coupling:   disabled
  Impulse scheme:    enabled
  Hamiltonian step:  disabled
  Hamiltonian midpt: disabled
  Variational step:  disabled
  Energy projection: disabled
  Projection particular metric: Euclidean
  Fluid KE gradient: disabled  (eps = 0.001, scale = 1, linear = 1, angular = 1)
  Fluid KE discrete gradient: disabled
  Impulse pair metric correction: disabled  (mode = pair discrete-gradient, cutoff = all pairs, inner/outer = 0/0, eps = 0.001, linear scale = 1, angular scale = 0)
  Impulse metric correction: disabled  (internal load constraint = disabled)
  Impulse variational defect probe: disabled
  Impulse quadratic pressure: disabled  (scale = 1)
  Added-mass stab:   disabled
  Exact BEM geometry: disabled
  Exact singular BEM: disabled
  Legacy singular SLP diagnostic: disabled
  Phi-dot blend:     0 (off)

  Solver guidance:
    - Strong coupling: use for stiff close-coupled runs; slower but more implicit.
    - Impulse scheme: use when impulse/momentum conservation or KE drift is the focus. Recommended.
    - Added-mass stab: use for higher mesh counts (ndiv > 3) to preserve stability - deprecated.
================================================
Solver starting - good luck!

Initial state:
  Body  1
    density:          0.030000
    shape axes ratio: (1.000000, 0.700000, 0.700000)
    initial KE ratio: 1.500000
    position:         (-4.000000, 0.000000, 0.000000)
    velocity:         (-0.108349, -2.201276, -2.783522)
    angular velocity: (-0.351596, -0.504317, -6.253036)
    orientation:      (w=-0.441796, i=-0.484582, j=-0.675213, k=-0.337763)
  Body  2
    density:          0.030000
    shape axes ratio: (1.000000, 0.700000, 0.700000)
    initial KE ratio: 1.500000
    position:         (4.000000, 0.000000, 0.000000)
    velocity:         (-0.105924, -2.152010, -2.721225)
    angular velocity: (2.285413, 5.184672, 2.715601)
    orientation:      (w=0.003367, i=-0.824459, j=-0.480883, k=0.298342)

Preparing first step: implicit scheme, no bootstrap passes required.
First step may take longer than later steps.

First step completed in 0.398 s.

Step   100/2000    5.0% | t 5.000 | ETA 8m 17s | step 0.25s | KE 42.2300 | drift +0.02% | fluid 38.3907 | solid 3.8393
  Impulse FP iterations last/mean/max 18/18.49/21
Step   200/2000   10.0% | t 10.000 | ETA 7m 44s | step 0.25s | KE 42.2183 | drift -0.01% | fluid 38.4181 | solid 3.8001
  Impulse FP iterations last/mean/max 19/18.32/21
Step   300/2000   15.0% | t 15.000 | ETA 7m 16s | step 0.23s | KE 42.3286 | drift +0.25% | fluid 38.4993 | solid 3.8294
  Impulse FP iterations last/mean/max 18/18.29/21
Step   400/2000   20.0% | t 20.000 | ETA 6m 46s | step 0.24s | KE 42.2416 | drift +0.05% | fluid 38.4293 | solid 3.8123
  Impulse FP iterations last/mean/max 18/18.23/21
Step   500/2000   25.0% | t 25.000 | ETA 6m 20s | step 0.25s | KE 42.3088 | drift +0.21% | fluid 38.4715 | solid 3.8373
  Impulse FP iterations last/mean/max 19/18.28/21
Step   600/2000   30.0% | t 30.000 | ETA 5m 55s | step 0.27s | KE 42.2988 | drift +0.18% | fluid 38.5289 | solid 3.7699
  Impulse FP iterations last/mean/max 19/18.33/22
Step   700/2000   35.0% | t 35.000 | ETA 5m 29s | step 0.25s | KE 42.3152 | drift +0.22% | fluid 38.4165 | solid 3.8987
  Impulse FP iterations last/mean/max 18/18.30/22
Step   800/2000   40.0% | t 40.000 | ETA 5m 3s | step 0.24s | KE 42.2661 | drift +0.11% | fluid 38.5371 | solid 3.7290
  Impulse FP iterations last/mean/max 17/18.24/22
Step   900/2000   45.0% | t 45.000 | ETA 4m 38s | step 0.24s | KE 42.3547 | drift +0.32% | fluid 38.4897 | solid 3.8649
  Impulse FP iterations last/mean/max 17/18.24/22
Step  1000/2000   50.0% | t 50.000 | ETA 4m 12s | step 0.20s | KE 42.2641 | drift +0.10% | fluid 38.4451 | solid 3.8190
  Impulse FP iterations last/mean/max 16/18.21/22
Step  1100/2000   55.0% | t 55.000 | ETA 3m 47s | step 0.26s | KE 42.3353 | drift +0.27% | fluid 38.5411 | solid 3.7942
  Impulse FP iterations last/mean/max 18/18.21/22
Step  1200/2000   60.0% | t 60.000 | ETA 3m 22s | step 0.28s | KE 42.2820 | drift +0.14% | fluid 38.4753 | solid 3.8067
  Impulse FP iterations last/mean/max 20/18.25/22
Step  1300/2000   65.0% | t 65.000 | ETA 2m 56s | step 0.23s | KE 42.3356 | drift +0.27% | fluid 38.4459 | solid 3.8897
  Impulse FP iterations last/mean/max 16/18.24/22
Step  1400/2000   70.0% | t 70.000 | ETA 2m 31s | step 0.25s | KE 42.2786 | drift +0.14% | fluid 38.5567 | solid 3.7219
  Impulse FP iterations last/mean/max 19/18.21/22
Step  1500/2000   75.0% | t 75.000 | ETA 2m 5s | step 0.21s | KE 42.3215 | drift +0.24% | fluid 38.4242 | solid 3.8973
  Impulse FP iterations last/mean/max 17/18.20/22
Step  1600/2000   80.0% | t 80.000 | ETA 1m 40s | step 0.28s | KE 42.2995 | drift +0.19% | fluid 38.4863 | solid 3.8133
  Impulse FP iterations last/mean/max 20/18.18/22
Step  1700/2000   85.0% | t 85.000 | ETA 1m 15s | step 0.25s | KE 42.3171 | drift +0.23% | fluid 38.5177 | solid 3.7993
  Impulse FP iterations last/mean/max 17/18.18/22
Step  1800/2000   90.0% | t 90.000 | ETA 50s | step 0.27s | KE 42.2751 | drift +0.13% | fluid 38.4180 | solid 3.8571
  Impulse FP iterations last/mean/max 20/18.20/22
Step  1900/2000   95.0% | t 95.000 | ETA 25s | step 0.22s | KE 42.3394 | drift +0.28% | fluid 38.5008 | solid 3.8385
  Impulse FP iterations last/mean/max 17/18.20/22
Solver finished successfully - good job!
Results saved successfully.

================== Run summary ==================
  Bodies:            2
  Triangles / nodes: 256 / 516
  Timesteps:         2000  (dt = 0.05)
  Simulated time:    0 -> 100
  First-step setup:  0.398 s
  Mean time/step:    0.2507 s  (excl. first step)
  Total wall time:   8m 21s
  Impulse FP iters last/mean/max: 18 / 18.186 / 22
  Approx impulse solves/step:     18.187
  Impulse start cache hits/direct: 1999 / 1
  Impulse global drift P/H:       1.142302e-8 / 1.929543e-3
  Impulse per-body max drift P/H: 2.380797e-8 / 1.408875e-4
  CPU cores:         256 available, 8 Rayon worker thread(s)
  Started:           2026-06-24 02:24:11
  Finished:          2026-06-24 02:32:33
  Output file:       /work/e643/e643/shared/multi_ellip/studies/two_body_paper_sweeps/runs/spheroid_1_0p7_0p7/spheroid_1_0p7_0p7_rho0p03_E1p5_sep8_run03_impulse_noproj/multiple_body_complete.dat
================================================
