
================ Simulation setup ================
  Run label:         /work/e643/e643/shared/multi_ellip/studies/two_body_paper_sweeps/runs/ellipsoid_1_0p8_0p6/ellipsoid_1_0p8_0p6_rho1_E0p55_sep3_run03_impulse_noproj/
  Started:           2026-06-24 01:33:30
  Input file:        /work/e643/e643/shared/multi_ellip/studies/two_body_paper_sweeps/runs/ellipsoid_1_0p8_0p6/ellipsoid_1_0p8_0p6_rho1_E0p55_sep3_run03_impulse_noproj/input.txt
  Output file:       /work/e643/e643/shared/multi_ellip/studies/two_body_paper_sweeps/runs/ellipsoid_1_0p8_0p6/ellipsoid_1_0p8_0p6_rho1_E0p55_sep3_run03_impulse_noproj/multiple_body_complete.dat
  Bodies:            2
  Fluid density:     1
  Mesh:              ndiv 2 -> 256 triangles / 516 nodes
  Simulated time:    0 -> 100  (dt = 0.05, ~2000 steps)
  Output cadence:    every 1 step(s)
  Output rows:       ~2001
  Progress cadence:  every 100 step(s)
  CPU cores:         256 available, 8 Rayon worker thread(s)
  Strong coupling:   disabled
  Impulse scheme:    enabled
  Hamiltonian step:  disabled
  Hamiltonian midpt: disabled
  Variational step:  disabled
  Energy projection: disabled
  Projection particular metric: Euclidean
  Fluid KE gradient: disabled  (eps = 0.001, scale = 1, linear = 1, angular = 1)
  Fluid KE discrete gradient: disabled
  Impulse pair metric correction: disabled  (mode = pair discrete-gradient, cutoff = all pairs, inner/outer = 0/0, eps = 0.001, linear scale = 1, angular scale = 0)
  Impulse metric correction: disabled  (internal load constraint = disabled)
  Impulse variational defect probe: disabled
  Impulse quadratic pressure: disabled  (scale = 1)
  Added-mass stab:   disabled
  Exact BEM geometry: disabled
  Exact singular BEM: disabled
  Legacy singular SLP diagnostic: disabled
  Phi-dot blend:     0 (off)

  Solver guidance:
    - Strong coupling: use for stiff close-coupled runs; slower but more implicit.
    - Impulse scheme: use when impulse/momentum conservation or KE drift is the focus. Recommended.
    - Added-mass stab: use for higher mesh counts (ndiv > 3) to preserve stability - deprecated.
================================================
Solver starting - good luck!

Initial state:
  Body  1
    density:          1.000000
    shape axes ratio: (1.000000, 0.800000, 0.600000)
    initial KE ratio: 0.550000
    position:         (-1.500000, 0.000000, 0.000000)
    velocity:         (-1.817779, -0.034559, 5.775259)
    angular velocity: (-0.780550, -3.018838, 5.454885)
    orientation:      (w=-0.672005, i=0.008538, j=-0.738684, k=0.051794)
  Body  2
    density:          1.000000
    shape axes ratio: (1.000000, 0.800000, 0.600000)
    initial KE ratio: 0.550000
    position:         (1.500000, 0.000000, 0.000000)
    velocity:         (-1.608772, -0.030586, 5.111224)
    angular velocity: (4.933899, -1.644246, -3.525835)
    orientation:      (w=0.328309, i=-0.458446, j=-0.567635, k=0.599858)

Preparing first step: implicit scheme, no bootstrap passes required.
First step may take longer than later steps.

First step completed in 0.369 s.

Step   100/2000    5.0% | t 5.000 | ETA 5m 18s | step 0.17s | KE 297.1098 | drift +6.65% | fluid 79.2282 | solid 217.8816
  Impulse FP iterations last/mean/max 12/11.60/13
Step   200/2000   10.0% | t 10.000 | ETA 4m 59s | step 0.17s | KE 296.8491 | drift +6.56% | fluid 83.3919 | solid 213.4571
  Impulse FP iterations last/mean/max 12/11.52/13
Step   300/2000   15.0% | t 15.000 | ETA 4m 41s | step 0.15s | KE 295.3503 | drift +6.02% | fluid 76.6462 | solid 218.7041
  Impulse FP iterations last/mean/max 11/11.49/13
Step   400/2000   20.0% | t 20.000 | ETA 4m 23s | step 0.16s | KE 296.4505 | drift +6.42% | fluid 67.2484 | solid 229.2022
  Impulse FP iterations last/mean/max 11/11.44/13
Step   500/2000   25.0% | t 25.000 | ETA 4m 7s | step 0.15s | KE 295.5690 | drift +6.10% | fluid 82.0906 | solid 213.4784
  Impulse FP iterations last/mean/max 11/11.44/13
Step   600/2000   30.0% | t 30.000 | ETA 3m 46s | step 0.13s | KE 296.7378 | drift +6.52% | fluid 77.1661 | solid 219.5717
  Impulse FP iterations last/mean/max 11/11.42/13
Step   700/2000   35.0% | t 35.000 | ETA 3m 26s | step 0.14s | KE 296.2924 | drift +6.36% | fluid 75.8010 | solid 220.4914
  Impulse FP iterations last/mean/max 11/11.40/13
Step   800/2000   40.0% | t 40.000 | ETA 3m 9s | step 0.15s | KE 295.8927 | drift +6.22% | fluid 71.9619 | solid 223.9308
  Impulse FP iterations last/mean/max 11/11.41/13
Step   900/2000   45.0% | t 45.000 | ETA 2m 53s | step 0.16s | KE 295.8535 | drift +6.20% | fluid 74.6001 | solid 221.2534
  Impulse FP iterations last/mean/max 12/11.41/13
Step  1000/2000   50.0% | t 50.000 | ETA 2m 38s | step 0.16s | KE 296.3911 | drift +6.40% | fluid 74.6058 | solid 221.7853
  Impulse FP iterations last/mean/max 11/11.41/13
Step  1100/2000   55.0% | t 55.000 | ETA 2m 22s | step 0.16s | KE 296.1822 | drift +6.32% | fluid 76.5815 | solid 219.6007
  Impulse FP iterations last/mean/max 11/11.40/13
Step  1200/2000   60.0% | t 60.000 | ETA 2m 7s | step 0.18s | KE 295.3322 | drift +6.02% | fluid 80.1441 | solid 215.1881
  Impulse FP iterations last/mean/max 12/11.40/13
Step  1300/2000   65.0% | t 65.000 | ETA 1m 51s | step 0.17s | KE 296.3424 | drift +6.38% | fluid 71.7552 | solid 224.5872
  Impulse FP iterations last/mean/max 11/11.39/13
Step  1400/2000   70.0% | t 70.000 | ETA 1m 35s | step 0.18s | KE 296.2770 | drift +6.36% | fluid 72.2796 | solid 223.9974
  Impulse FP iterations last/mean/max 12/11.39/13
Step  1500/2000   75.0% | t 75.000 | ETA 1m 19s | step 0.16s | KE 295.8196 | drift +6.19% | fluid 79.7586 | solid 216.0610
  Impulse FP iterations last/mean/max 12/11.39/13
Step  1600/2000   80.0% | t 80.000 | ETA 1m 3s | step 0.14s | KE 295.2303 | drift +5.98% | fluid 83.3986 | solid 211.8317
  Impulse FP iterations last/mean/max 11/11.39/13
Step  1700/2000   85.0% | t 85.000 | ETA 46s | step 0.13s | KE 296.0552 | drift +6.28% | fluid 75.6166 | solid 220.4386
  Impulse FP iterations last/mean/max 12/11.39/13
Step  1800/2000   90.0% | t 90.000 | ETA 30s | step 0.13s | KE 296.1940 | drift +6.33% | fluid 72.4870 | solid 223.7070
  Impulse FP iterations last/mean/max 12/11.39/13
Step  1900/2000   95.0% | t 95.000 | ETA 15s | step 0.13s | KE 295.5600 | drift +6.10% | fluid 82.9074 | solid 212.6526
  Impulse FP iterations last/mean/max 12/11.39/13
Solver finished successfully - good job!
Results saved successfully.

================== Run summary ==================
  Bodies:            2
  Triangles / nodes: 256 / 516
  Timesteps:         2000  (dt = 0.05)
  Simulated time:    0 -> 100
  First-step setup:  0.369 s
  Mean time/step:    0.1521 s  (excl. first step)
  Total wall time:   5m 4s
  Impulse FP iters last/mean/max: 11 / 11.394 / 13
  Approx impulse solves/step:     11.395
  Impulse start cache hits/direct: 1999 / 1
  Impulse global drift P/H:       2.124026e-9 / 7.850599e-2
  Impulse per-body max drift P/H: 6.384829e-9 / 1.796007e-2
  CPU cores:         256 available, 8 Rayon worker thread(s)
  Started:           2026-06-24 01:33:30
  Finished:          2026-06-24 01:38:35
  Output file:       /work/e643/e643/shared/multi_ellip/studies/two_body_paper_sweeps/runs/ellipsoid_1_0p8_0p6/ellipsoid_1_0p8_0p6_rho1_E0p55_sep3_run03_impulse_noproj/multiple_body_complete.dat
================================================
