
================ Simulation setup ================
  Run label:         /work/e643/e643/shared/multi_ellip/studies/departing_sphericity_sweep/runs/triaxial/homogeneous/triaxial_homogeneous_eps0p3_rho1_E0p5_sep8_run08_impulse_noproj/
  Started:           2026-06-24 02:30:21
  Input file:        /work/e643/e643/shared/multi_ellip/studies/departing_sphericity_sweep/runs/triaxial/homogeneous/triaxial_homogeneous_eps0p3_rho1_E0p5_sep8_run08_impulse_noproj/input.txt
  Output file:       /work/e643/e643/shared/multi_ellip/studies/departing_sphericity_sweep/runs/triaxial/homogeneous/triaxial_homogeneous_eps0p3_rho1_E0p5_sep8_run08_impulse_noproj/multiple_body_complete.dat
  Bodies:            2
  Fluid density:     1
  Mesh:              ndiv 2 -> 256 triangles / 516 nodes
  Simulated time:    0 -> 100  (dt = 0.05, ~2000 steps)
  Output cadence:    every 1 step(s)
  Output rows:       ~2001
  Progress cadence:  every 100 step(s)
  CPU cores:         256 available, 8 Rayon worker thread(s)
  Strong coupling:   disabled
  Impulse scheme:    enabled
  Hamiltonian step:  disabled
  Hamiltonian midpt: disabled
  Variational step:  disabled
  Energy projection: disabled
  Projection particular metric: Euclidean
  Fluid KE gradient: disabled  (eps = 0.001, scale = 1, linear = 1, angular = 1)
  Fluid KE discrete gradient: disabled
  Impulse pair metric correction: disabled  (mode = pair discrete-gradient, cutoff = all pairs, inner/outer = 0/0, eps = 0.001, linear scale = 1, angular scale = 0)
  Impulse metric correction: disabled  (internal load constraint = disabled)
  Impulse variational defect probe: disabled
  Impulse quadratic pressure: disabled  (scale = 1)
  Added-mass stab:   disabled
  Exact BEM geometry: disabled
  Exact singular BEM: disabled
  Legacy singular SLP diagnostic: disabled
  Phi-dot blend:     0 (off)

  Solver guidance:
    - Strong coupling: use for stiff close-coupled runs; slower but more implicit.
    - Impulse scheme: use when impulse/momentum conservation or KE drift is the focus. Recommended.
    - Added-mass stab: use for higher mesh counts (ndiv > 3) to preserve stability - deprecated.
================================================
Solver starting - good luck!

Initial state:
  Body  1
    density:          1.000000
    shape axes ratio: (1.000000, 0.769231, 0.591716)
    initial KE ratio: 0.500000
    position:         (-4.000000, 0.000000, 0.000000)
    velocity:         (2.108880, -2.984973, 3.643340)
    angular velocity: (6.001213, -0.396925, -1.818325)
    orientation:      (w=0.610014, i=-0.028061, j=-0.749751, k=-0.254890)
  Body  2
    density:          1.000000
    shape axes ratio: (1.000000, 0.769231, 0.591716)
    initial KE ratio: 0.500000
    position:         (4.000000, 0.000000, 0.000000)
    velocity:         (2.543486, -3.600127, 4.394174)
    angular velocity: (-0.881731, -4.561581, -4.230006)
    orientation:      (w=-0.683866, i=-0.113212, j=0.706851, k=-0.140967)

Preparing first step: implicit scheme, no bootstrap passes required.
First step may take longer than later steps.

First step completed in 0.350 s.

Step   100/2000    5.0% | t 5.000 | ETA 5m 9s | step 0.16s | KE 275.4922 | drift -3.53% | fluid 79.3074 | solid 196.1848
  Impulse FP iterations last/mean/max 11/11.34/12
Step   200/2000   10.0% | t 10.000 | ETA 4m 49s | step 0.15s | KE 272.9351 | drift -4.42% | fluid 76.5721 | solid 196.3630
  Impulse FP iterations last/mean/max 11/11.33/12
Step   300/2000   15.0% | t 15.000 | ETA 4m 25s | step 0.17s | KE 272.4347 | drift -4.60% | fluid 73.4510 | solid 198.9836
  Impulse FP iterations last/mean/max 12/11.32/12
Step   400/2000   20.0% | t 20.000 | ETA 4m 7s | step 0.16s | KE 271.8768 | drift -4.79% | fluid 77.3784 | solid 194.4984
  Impulse FP iterations last/mean/max 12/11.27/12
Step   500/2000   25.0% | t 25.000 | ETA 3m 51s | step 0.15s | KE 271.9672 | drift -4.76% | fluid 76.1840 | solid 195.7832
  Impulse FP iterations last/mean/max 11/11.27/12
Step   600/2000   30.0% | t 30.000 | ETA 3m 38s | step 0.17s | KE 271.1943 | drift -5.03% | fluid 81.8651 | solid 189.3292
  Impulse FP iterations last/mean/max 12/11.28/12
Step   700/2000   35.0% | t 35.000 | ETA 3m 23s | step 0.16s | KE 271.5483 | drift -4.91% | fluid 79.3686 | solid 192.1796
  Impulse FP iterations last/mean/max 12/11.28/12
Step   800/2000   40.0% | t 40.000 | ETA 3m 8s | step 0.15s | KE 272.0341 | drift -4.74% | fluid 72.4419 | solid 199.5922
  Impulse FP iterations last/mean/max 11/11.28/12
Step   900/2000   45.0% | t 45.000 | ETA 2m 53s | step 0.14s | KE 271.9693 | drift -4.76% | fluid 74.9633 | solid 197.0060
  Impulse FP iterations last/mean/max 10/11.29/12
Step  1000/2000   50.0% | t 50.000 | ETA 2m 38s | step 0.16s | KE 271.7532 | drift -4.84% | fluid 78.0784 | solid 193.6748
  Impulse FP iterations last/mean/max 11/11.29/12
Step  1100/2000   55.0% | t 55.000 | ETA 2m 22s | step 0.16s | KE 272.1468 | drift -4.70% | fluid 75.6762 | solid 196.4705
  Impulse FP iterations last/mean/max 11/11.29/12
Step  1200/2000   60.0% | t 60.000 | ETA 2m 7s | step 0.17s | KE 271.7550 | drift -4.84% | fluid 78.4567 | solid 193.2983
  Impulse FP iterations last/mean/max 12/11.30/12
Step  1300/2000   65.0% | t 65.000 | ETA 1m 51s | step 0.15s | KE 272.0175 | drift -4.74% | fluid 74.1094 | solid 197.9081
  Impulse FP iterations last/mean/max 11/11.28/12
Step  1400/2000   70.0% | t 70.000 | ETA 1m 35s | step 0.16s | KE 272.0142 | drift -4.75% | fluid 70.0123 | solid 202.0019
  Impulse FP iterations last/mean/max 11/11.28/12
Step  1500/2000   75.0% | t 75.000 | ETA 1m 19s | step 0.18s | KE 272.0965 | drift -4.72% | fluid 70.9095 | solid 201.1870
  Impulse FP iterations last/mean/max 12/11.27/12
Step  1600/2000   80.0% | t 80.000 | ETA 1m 3s | step 0.14s | KE 272.1284 | drift -4.71% | fluid 73.1381 | solid 198.9903
  Impulse FP iterations last/mean/max 12/11.27/12
Step  1700/2000   85.0% | t 85.000 | ETA 46s | step 0.13s | KE 271.6997 | drift -4.86% | fluid 76.5058 | solid 195.1939
  Impulse FP iterations last/mean/max 11/11.26/12
Step  1800/2000   90.0% | t 90.000 | ETA 30s | step 0.12s | KE 272.1306 | drift -4.70% | fluid 73.1157 | solid 199.0149
  Impulse FP iterations last/mean/max 11/11.26/12
Step  1900/2000   95.0% | t 95.000 | ETA 15s | step 0.11s | KE 272.0040 | drift -4.75% | fluid 70.3298 | solid 201.6742
  Impulse FP iterations last/mean/max 11/11.26/12
Solver finished successfully - good job!
Results saved successfully.

================== Run summary ==================
  Bodies:            2
  Triangles / nodes: 256 / 516
  Timesteps:         2000  (dt = 0.05)
  Simulated time:    0 -> 100
  First-step setup:  0.350 s
  Mean time/step:    0.1504 s  (excl. first step)
  Total wall time:   5m 0s
  Impulse FP iters last/mean/max: 11 / 11.257 / 12
  Approx impulse solves/step:     11.257
  Impulse start cache hits/direct: 1999 / 1
  Impulse global drift P/H:       5.216402e-9 / 1.658946e-2
  Impulse per-body max drift P/H: 7.722875e-9 / 2.687300e-3
  CPU cores:         256 available, 8 Rayon worker thread(s)
  Started:           2026-06-24 02:30:21
  Finished:          2026-06-24 02:35:23
  Output file:       /work/e643/e643/shared/multi_ellip/studies/departing_sphericity_sweep/runs/triaxial/homogeneous/triaxial_homogeneous_eps0p3_rho1_E0p5_sep8_run08_impulse_noproj/multiple_body_complete.dat
================================================
