
================ Simulation setup ================
  Run label:         /work/e643/e643/shared/multi_ellip/studies/departing_sphericity_sweep/runs/triaxial/homogeneous/triaxial_homogeneous_eps0p001_rho1_E0p5_sep8_run06_impulse_noproj/
  Started:           2026-06-24 02:26:25
  Input file:        /work/e643/e643/shared/multi_ellip/studies/departing_sphericity_sweep/runs/triaxial/homogeneous/triaxial_homogeneous_eps0p001_rho1_E0p5_sep8_run06_impulse_noproj/input.txt
  Output file:       /work/e643/e643/shared/multi_ellip/studies/departing_sphericity_sweep/runs/triaxial/homogeneous/triaxial_homogeneous_eps0p001_rho1_E0p5_sep8_run06_impulse_noproj/multiple_body_complete.dat
  Bodies:            2
  Fluid density:     1
  Mesh:              ndiv 2 -> 256 triangles / 516 nodes
  Simulated time:    0 -> 100  (dt = 0.05, ~2000 steps)
  Output cadence:    every 1 step(s)
  Output rows:       ~2001
  Progress cadence:  every 100 step(s)
  CPU cores:         256 available, 8 Rayon worker thread(s)
  Strong coupling:   disabled
  Impulse scheme:    enabled
  Hamiltonian step:  disabled
  Hamiltonian midpt: disabled
  Variational step:  disabled
  Energy projection: disabled
  Projection particular metric: Euclidean
  Fluid KE gradient: disabled  (eps = 0.001, scale = 1, linear = 1, angular = 1)
  Fluid KE discrete gradient: disabled
  Impulse pair metric correction: disabled  (mode = pair discrete-gradient, cutoff = all pairs, inner/outer = 0/0, eps = 0.001, linear scale = 1, angular scale = 0)
  Impulse metric correction: disabled  (internal load constraint = disabled)
  Impulse variational defect probe: disabled
  Impulse quadratic pressure: disabled  (scale = 1)
  Added-mass stab:   disabled
  Exact BEM geometry: disabled
  Exact singular BEM: disabled
  Legacy singular SLP diagnostic: disabled
  Phi-dot blend:     0 (off)

  Solver guidance:
    - Strong coupling: use for stiff close-coupled runs; slower but more implicit.
    - Impulse scheme: use when impulse/momentum conservation or KE drift is the focus. Recommended.
    - Added-mass stab: use for higher mesh counts (ndiv > 3) to preserve stability - deprecated.
================================================
Solver starting - good luck!

Initial state:
  Body  1
    density:          1.000000
    shape axes ratio: (1.000000, 0.999001, 0.998003)
    initial KE ratio: 0.500000
    position:         (-4.000000, 0.000000, 0.000000)
    velocity:         (-3.508463, -2.664609, -3.489509)
    angular velocity: (-2.665712, -4.591499, 3.360138)
    orientation:      (w=0.481765, i=-0.146868, j=0.707713, k=-0.495454)
  Body  2
    density:          1.000000
    shape axes ratio: (1.000000, 0.999001, 0.998003)
    initial KE ratio: 0.500000
    position:         (4.000000, 0.000000, 0.000000)
    velocity:         (-3.509589, -2.665464, -3.490628)
    angular velocity: (-1.912213, 1.616642, 5.762666)
    orientation:      (w=0.502847, i=0.778807, j=-0.370224, k=0.059490)

Preparing first step: implicit scheme, no bootstrap passes required.
First step may take longer than later steps.

First step completed in 0.220 s.

Step   100/2000    5.0% | t 5.000 | ETA 3m 18s | step 0.11s | KE 259.7117 | drift -4.12% | fluid 72.4046 | solid 187.3071
  Impulse FP iterations last/mean/max 8/7.88/8
Step   200/2000   10.0% | t 10.000 | ETA 3m 2s | step 0.08s | KE 251.7539 | drift -7.06% | fluid 72.3752 | solid 179.3787
  Impulse FP iterations last/mean/max 7/7.80/8
Step   300/2000   15.0% | t 15.000 | ETA 2m 49s | step 0.09s | KE 247.0206 | drift -8.80% | fluid 72.3573 | solid 174.6633
  Impulse FP iterations last/mean/max 7/7.76/8
Step   400/2000   20.0% | t 20.000 | ETA 2m 39s | step 0.09s | KE 245.5478 | drift -9.35% | fluid 72.3579 | solid 173.1900
  Impulse FP iterations last/mean/max 7/7.73/8
Step   500/2000   25.0% | t 25.000 | ETA 2m 31s | step 0.11s | KE 247.3584 | drift -8.68% | fluid 72.3742 | solid 174.9842
  Impulse FP iterations last/mean/max 8/7.72/8
Step   600/2000   30.0% | t 30.000 | ETA 2m 22s | step 0.11s | KE 252.4679 | drift -6.79% | fluid 72.3690 | solid 180.0989
  Impulse FP iterations last/mean/max 8/7.72/8
Step   700/2000   35.0% | t 35.000 | ETA 2m 13s | step 0.11s | KE 260.8650 | drift -3.69% | fluid 72.3758 | solid 188.4892
  Impulse FP iterations last/mean/max 8/7.73/8
Step   800/2000   40.0% | t 40.000 | ETA 2m 4s | step 0.11s | KE 272.5291 | drift +0.61% | fluid 72.3929 | solid 200.1361
  Impulse FP iterations last/mean/max 8/7.75/8
Step   900/2000   45.0% | t 45.000 | ETA 1m 54s | step 0.11s | KE 287.4408 | drift +6.12% | fluid 72.3837 | solid 215.0571
  Impulse FP iterations last/mean/max 8/7.77/8
Step  1000/2000   50.0% | t 50.000 | ETA 1m 45s | step 0.12s | KE 305.5706 | drift +12.81% | fluid 72.3651 | solid 233.2056
  Impulse FP iterations last/mean/max 8/7.79/8
Step  1100/2000   55.0% | t 55.000 | ETA 1m 35s | step 0.10s | KE 326.8923 | drift +20.68% | fluid 72.3777 | solid 254.5147
  Impulse FP iterations last/mean/max 7/7.80/8
Step  1200/2000   60.0% | t 60.000 | ETA 1m 24s | step 0.10s | KE 351.4064 | drift +29.74% | fluid 72.3758 | solid 279.0306
  Impulse FP iterations last/mean/max 7/7.81/8
Step  1300/2000   65.0% | t 65.000 | ETA 1m 14s | step 0.11s | KE 379.0819 | drift +39.95% | fluid 72.3936 | solid 306.6883
  Impulse FP iterations last/mean/max 8/7.82/8
Step  1400/2000   70.0% | t 70.000 | ETA 1m 4s | step 0.10s | KE 409.9220 | drift +51.34% | fluid 72.3921 | solid 337.5299
  Impulse FP iterations last/mean/max 8/7.83/8
Step  1500/2000   75.0% | t 75.000 | ETA 53s | step 0.11s | KE 443.8933 | drift +63.88% | fluid 72.3816 | solid 371.5117
  Impulse FP iterations last/mean/max 8/7.84/8
Step  1600/2000   80.0% | t 80.000 | ETA 42s | step 0.12s | KE 480.9793 | drift +77.57% | fluid 72.4098 | solid 408.5695
  Impulse FP iterations last/mean/max 8/7.84/8
Step  1700/2000   85.0% | t 85.000 | ETA 32s | step 0.11s | KE 521.1914 | drift +92.42% | fluid 72.3631 | solid 448.8283
  Impulse FP iterations last/mean/max 8/7.84/8
Step  1800/2000   90.0% | t 90.000 | ETA 21s | step 0.11s | KE 564.4437 | drift +108.39% | fluid 72.3979 | solid 492.0458
  Impulse FP iterations last/mean/max 8/7.85/8
Step  1900/2000   95.0% | t 95.000 | ETA 10s | step 0.10s | KE 610.7872 | drift +125.50% | fluid 72.3655 | solid 538.4217
  Impulse FP iterations last/mean/max 8/7.85/8
Solver finished successfully - good job!
Results saved successfully.

================== Run summary ==================
  Bodies:            2
  Triangles / nodes: 256 / 516
  Timesteps:         2000  (dt = 0.05)
  Simulated time:    0 -> 100
  First-step setup:  0.220 s
  Mean time/step:    0.1068 s  (excl. first step)
  Total wall time:   3m 33s
  Impulse FP iters last/mean/max: 8 / 7.851 / 8
  Approx impulse solves/step:     7.851
  Impulse start cache hits/direct: 1999 / 1
  Impulse global drift P/H:       4.027900e-9 / 4.021324e-2
  Impulse per-body max drift P/H: 7.254416e-9 / 5.598217e-3
  CPU cores:         256 available, 8 Rayon worker thread(s)
  Started:           2026-06-24 02:26:25
  Finished:          2026-06-24 02:29:59
  Output file:       /work/e643/e643/shared/multi_ellip/studies/departing_sphericity_sweep/runs/triaxial/homogeneous/triaxial_homogeneous_eps0p001_rho1_E0p5_sep8_run06_impulse_noproj/multiple_body_complete.dat
================================================
