
================ Simulation setup ================
  Run label:         /work/e643/e643/shared/multi_ellip/studies/departing_sphericity_sweep/runs/spheroid_oblate/homogeneous/spheroid_oblate_homogeneous_eps1_rho1_E0p5_sep8_run08_impulse_noproj/
  Started:           2026-06-24 02:38:57
  Input file:        /work/e643/e643/shared/multi_ellip/studies/departing_sphericity_sweep/runs/spheroid_oblate/homogeneous/spheroid_oblate_homogeneous_eps1_rho1_E0p5_sep8_run08_impulse_noproj/input.txt
  Output file:       /work/e643/e643/shared/multi_ellip/studies/departing_sphericity_sweep/runs/spheroid_oblate/homogeneous/spheroid_oblate_homogeneous_eps1_rho1_E0p5_sep8_run08_impulse_noproj/multiple_body_complete.dat
  Bodies:            2
  Fluid density:     1
  Mesh:              ndiv 2 -> 256 triangles / 516 nodes
  Simulated time:    0 -> 100  (dt = 0.05, ~2000 steps)
  Output cadence:    every 1 step(s)
  Output rows:       ~2001
  Progress cadence:  every 100 step(s)
  CPU cores:         256 available, 8 Rayon worker thread(s)
  Strong coupling:   disabled
  Impulse scheme:    enabled
  Hamiltonian step:  disabled
  Hamiltonian midpt: disabled
  Variational step:  disabled
  Energy projection: disabled
  Projection particular metric: Euclidean
  Fluid KE gradient: disabled  (eps = 0.001, scale = 1, linear = 1, angular = 1)
  Fluid KE discrete gradient: disabled
  Impulse pair metric correction: disabled  (mode = pair discrete-gradient, cutoff = all pairs, inner/outer = 0/0, eps = 0.001, linear scale = 1, angular scale = 0)
  Impulse metric correction: disabled  (internal load constraint = disabled)
  Impulse variational defect probe: disabled
  Impulse quadratic pressure: disabled  (scale = 1)
  Added-mass stab:   disabled
  Exact BEM geometry: disabled
  Exact singular BEM: disabled
  Legacy singular SLP diagnostic: disabled
  Phi-dot blend:     0 (off)

  Solver guidance:
    - Strong coupling: use for stiff close-coupled runs; slower but more implicit.
    - Impulse scheme: use when impulse/momentum conservation or KE drift is the focus. Recommended.
    - Added-mass stab: use for higher mesh counts (ndiv > 3) to preserve stability - deprecated.
================================================
Solver starting - good luck!

Initial state:
  Body  1
    density:          1.000000
    shape axes ratio: (1.000000, 1.000000, 0.125000)
    initial KE ratio: 0.500000
    position:         (-4.000000, 0.000000, 0.000000)
    velocity:         (-3.090357, -7.219509, -2.678290)
    angular velocity: (3.260523, 5.086068, 1.726070)
    orientation:      (w=-0.793818, i=0.586953, j=-0.018358, k=-0.158120)
  Body  2
    density:          1.000000
    shape axes ratio: (1.000000, 1.000000, 0.125000)
    initial KE ratio: 0.500000
    position:         (4.000000, 0.000000, 0.000000)
    velocity:         (-3.242750, -7.575521, -2.810363)
    angular velocity: (-2.185277, 5.225550, -2.719671)
    orientation:      (w=-0.329118, i=-0.077805, j=0.876494, k=0.342616)

Preparing first step: implicit scheme, no bootstrap passes required.
First step may take longer than later steps.

First step completed in 0.400 s.

Step   100/2000    5.0% | t 5.000 | ETA 9m 16s | step 0.39s | KE 1249.9391 | drift -0.24% | fluid 734.4498 | solid 515.4892
  Impulse FP iterations last/mean/max 30/20.20/30
Step   200/2000   10.0% | t 10.000 | ETA 8m 22s | step 0.25s | KE 1250.3660 | drift -0.21% | fluid 749.2507 | solid 501.1153
  Impulse FP iterations last/mean/max 18/20.12/30
Step   300/2000   15.0% | t 15.000 | ETA 7m 49s | step 0.26s | KE 1250.5010 | drift -0.20% | fluid 687.3038 | solid 563.1973
  Impulse FP iterations last/mean/max 17/20.20/30
Step   400/2000   20.0% | t 20.000 | ETA 7m 29s | step 0.28s | KE 1249.4620 | drift -0.28% | fluid 789.3519 | solid 460.1100
  Impulse FP iterations last/mean/max 18/20.21/30
Step   500/2000   25.0% | t 25.000 | ETA 7m 5s | step 0.26s | KE 1250.2117 | drift -0.22% | fluid 725.7152 | solid 524.4965
  Impulse FP iterations last/mean/max 19/20.19/30
Step   600/2000   30.0% | t 30.000 | ETA 6m 24s | step 0.20s | KE 1250.7056 | drift -0.18% | fluid 675.9229 | solid 574.7827
  Impulse FP iterations last/mean/max 21/20.23/30
Step   700/2000   35.0% | t 35.000 | ETA 5m 39s | step 0.17s | KE 1249.2358 | drift -0.30% | fluid 824.7243 | solid 424.5115
  Impulse FP iterations last/mean/max 18/20.07/30
Step   800/2000   40.0% | t 40.000 | ETA 5m 1s | step 0.25s | KE 1250.5133 | drift -0.20% | fluid 659.1275 | solid 591.3857
  Impulse FP iterations last/mean/max 30/20.05/30
Step   900/2000   45.0% | t 45.000 | ETA 4m 28s | step 0.18s | KE 1250.1732 | drift -0.22% | fluid 765.7933 | solid 484.3799
  Impulse FP iterations last/mean/max 20/20.05/30
Step  1000/2000   50.0% | t 50.000 | ETA 3m 58s | step 0.16s | KE 1250.4033 | drift -0.21% | fluid 743.3814 | solid 507.0219
  Impulse FP iterations last/mean/max 17/20.09/30
Step  1100/2000   55.0% | t 55.000 | ETA 3m 29s | step 0.18s | KE 1250.4892 | drift -0.20% | fluid 671.8485 | solid 578.6407
  Impulse FP iterations last/mean/max 19/20.08/30
Step  1200/2000   60.0% | t 60.000 | ETA 3m 3s | step 0.17s | KE 1249.2067 | drift -0.30% | fluid 823.9956 | solid 425.2111
  Impulse FP iterations last/mean/max 19/20.06/30
Step  1300/2000   65.0% | t 65.000 | ETA 2m 37s | step 0.18s | KE 1250.6965 | drift -0.18% | fluid 670.7632 | solid 579.9333
  Impulse FP iterations last/mean/max 19/20.05/30
Step  1400/2000   70.0% | t 70.000 | ETA 2m 13s | step 0.18s | KE 1250.1226 | drift -0.23% | fluid 736.7882 | solid 513.3344
  Impulse FP iterations last/mean/max 19/20.03/30
Step  1500/2000   75.0% | t 75.000 | ETA 1m 49s | step 0.17s | KE 1249.5821 | drift -0.27% | fluid 773.2136 | solid 476.3684
  Impulse FP iterations last/mean/max 18/20.04/30
Step  1600/2000   80.0% | t 80.000 | ETA 1m 27s | step 0.20s | KE 1250.2899 | drift -0.21% | fluid 701.1551 | solid 549.1348
  Impulse FP iterations last/mean/max 22/20.05/30
Step  1700/2000   85.0% | t 85.000 | ETA 1m 4s | step 0.20s | KE 1250.4240 | drift -0.20% | fluid 741.3100 | solid 509.1140
  Impulse FP iterations last/mean/max 23/20.05/30
Step  1800/2000   90.0% | t 90.000 | ETA 42s | step 0.24s | KE 1250.3606 | drift -0.21% | fluid 736.8428 | solid 513.5178
  Impulse FP iterations last/mean/max 28/20.07/30
Step  1900/2000   95.0% | t 95.000 | ETA 21s | step 0.17s | KE 1249.9981 | drift -0.24% | fluid 718.0270 | solid 531.9711
  Impulse FP iterations last/mean/max 18/20.07/30
Solver finished successfully - good job!
Results saved successfully.

================== Run summary ==================
  Bodies:            2
  Triangles / nodes: 256 / 516
  Timesteps:         2000  (dt = 0.05)
  Simulated time:    0 -> 100
  First-step setup:  0.400 s
  Mean time/step:    0.2111 s  (excl. first step)
  Total wall time:   7m 2s
  Impulse FP iters last/mean/max: 19 / 20.076 / 30
  Approx impulse solves/step:     20.076
  Impulse start cache hits/direct: 1999 / 1
  Impulse global drift P/H:       1.341386e-9 / 1.402264e-3
  Impulse per-body max drift P/H: 2.316704e-9 / 3.953234e-3
  CPU cores:         256 available, 8 Rayon worker thread(s)
  Started:           2026-06-24 02:38:57
  Finished:          2026-06-24 02:45:59
  Output file:       /work/e643/e643/shared/multi_ellip/studies/departing_sphericity_sweep/runs/spheroid_oblate/homogeneous/spheroid_oblate_homogeneous_eps1_rho1_E0p5_sep8_run08_impulse_noproj/multiple_body_complete.dat
================================================
