
================ Simulation setup ================
  Run label:         /work/e643/e643/shared/multi_ellip/studies/two_body_paper_sweeps/runs/spheroid_1_0p7_0p7/spheroid_1_0p7_0p7_rho1_E30_sep3_run03_impulse_noproj/
  Started:           2026-06-24 01:39:24
  Input file:        /work/e643/e643/shared/multi_ellip/studies/two_body_paper_sweeps/runs/spheroid_1_0p7_0p7/spheroid_1_0p7_0p7_rho1_E30_sep3_run03_impulse_noproj/input.txt
  Output file:       /work/e643/e643/shared/multi_ellip/studies/two_body_paper_sweeps/runs/spheroid_1_0p7_0p7/spheroid_1_0p7_0p7_rho1_E30_sep3_run03_impulse_noproj/multiple_body_complete.dat
  Bodies:            2
  Fluid density:     1
  Mesh:              ndiv 2 -> 256 triangles / 516 nodes
  Simulated time:    0 -> 100  (dt = 0.05, ~2000 steps)
  Output cadence:    every 1 step(s)
  Output rows:       ~2001
  Progress cadence:  every 100 step(s)
  CPU cores:         256 available, 8 Rayon worker thread(s)
  Strong coupling:   disabled
  Impulse scheme:    enabled
  Hamiltonian step:  disabled
  Hamiltonian midpt: disabled
  Variational step:  disabled
  Energy projection: disabled
  Projection particular metric: Euclidean
  Fluid KE gradient: disabled  (eps = 0.001, scale = 1, linear = 1, angular = 1)
  Fluid KE discrete gradient: disabled
  Impulse pair metric correction: disabled  (mode = pair discrete-gradient, cutoff = all pairs, inner/outer = 0/0, eps = 0.001, linear scale = 1, angular scale = 0)
  Impulse metric correction: disabled  (internal load constraint = disabled)
  Impulse variational defect probe: disabled
  Impulse quadratic pressure: disabled  (scale = 1)
  Added-mass stab:   disabled
  Exact BEM geometry: disabled
  Exact singular BEM: disabled
  Legacy singular SLP diagnostic: disabled
  Phi-dot blend:     0 (off)

  Solver guidance:
    - Strong coupling: use for stiff close-coupled runs; slower but more implicit.
    - Impulse scheme: use when impulse/momentum conservation or KE drift is the focus. Recommended.
    - Added-mass stab: use for higher mesh counts (ndiv > 3) to preserve stability - deprecated.
================================================
Solver starting - good luck!

Initial state:
  Body  1
    density:          1.000000
    shape axes ratio: (1.000000, 0.700000, 0.700000)
    initial KE ratio: 30.000000
    position:         (-1.500000, 0.000000, 0.000000)
    velocity:         (0.276911, -0.600165, -0.419265)
    angular velocity: (1.828184, -4.036974, -4.454100)
    orientation:      (w=0.280898, i=0.692013, j=0.608066, k=-0.269203)
  Body  2
    density:          1.000000
    shape axes ratio: (1.000000, 0.700000, 0.700000)
    initial KE ratio: 30.000000
    position:         (1.500000, 0.000000, 0.000000)
    velocity:         (0.227943, -0.494035, -0.345125)
    angular velocity: (-6.280902, -0.039241, 0.164783)
    orientation:      (w=0.419232, i=0.717704, j=-0.016180, k=0.555773)

Preparing first step: implicit scheme, no bootstrap passes required.
First step may take longer than later steps.

First step completed in 0.281 s.

Step   100/2000    5.0% | t 5.000 | ETA 4m 0s | step 0.13s | KE 86.6277 | drift -0.28% | fluid 7.4712 | solid 79.1565
  Impulse FP iterations last/mean/max 10/9.99/10
Step   200/2000   10.0% | t 10.000 | ETA 3m 56s | step 0.14s | KE 86.9038 | drift +0.04% | fluid 7.2451 | solid 79.6587
  Impulse FP iterations last/mean/max 10/10.03/11
Step   300/2000   15.0% | t 15.000 | ETA 3m 49s | step 0.15s | KE 87.3997 | drift +0.61% | fluid 7.3410 | solid 80.0587
  Impulse FP iterations last/mean/max 10/10.01/11
Step   400/2000   20.0% | t 20.000 | ETA 3m 39s | step 0.14s | KE 87.5573 | drift +0.79% | fluid 7.3940 | solid 80.1634
  Impulse FP iterations last/mean/max 10/10.00/11
Step   500/2000   25.0% | t 25.000 | ETA 3m 28s | step 0.15s | KE 87.8372 | drift +1.11% | fluid 7.2897 | solid 80.5475
  Impulse FP iterations last/mean/max 10/9.97/11
Step   600/2000   30.0% | t 30.000 | ETA 3m 14s | step 0.14s | KE 87.9078 | drift +1.19% | fluid 7.3808 | solid 80.5270
  Impulse FP iterations last/mean/max 10/9.88/11
Step   700/2000   35.0% | t 35.000 | ETA 3m 0s | step 0.12s | KE 87.9915 | drift +1.29% | fluid 7.2933 | solid 80.6982
  Impulse FP iterations last/mean/max 9/9.82/11
Step   800/2000   40.0% | t 40.000 | ETA 2m 45s | step 0.13s | KE 88.0539 | drift +1.36% | fluid 7.3615 | solid 80.6923
  Impulse FP iterations last/mean/max 9/9.74/11
Step   900/2000   45.0% | t 45.000 | ETA 2m 31s | step 0.13s | KE 88.0704 | drift +1.38% | fluid 7.3996 | solid 80.6708
  Impulse FP iterations last/mean/max 9/9.66/11
Step  1000/2000   50.0% | t 50.000 | ETA 2m 16s | step 0.13s | KE 88.1041 | drift +1.42% | fluid 7.3599 | solid 80.7443
  Impulse FP iterations last/mean/max 9/9.59/11
Step  1100/2000   55.0% | t 55.000 | ETA 2m 2s | step 0.13s | KE 88.1058 | drift +1.42% | fluid 7.4167 | solid 80.6891
  Impulse FP iterations last/mean/max 9/9.54/11
Step  1200/2000   60.0% | t 60.000 | ETA 1m 48s | step 0.13s | KE 88.1129 | drift +1.43% | fluid 7.3413 | solid 80.7716
  Impulse FP iterations last/mean/max 9/9.49/11
Step  1300/2000   65.0% | t 65.000 | ETA 1m 34s | step 0.13s | KE 88.1217 | drift +1.44% | fluid 7.3353 | solid 80.7863
  Impulse FP iterations last/mean/max 9/9.45/11
Step  1400/2000   70.0% | t 70.000 | ETA 1m 20s | step 0.12s | KE 88.1184 | drift +1.44% | fluid 7.4209 | solid 80.6975
  Impulse FP iterations last/mean/max 9/9.42/11
Step  1500/2000   75.0% | t 75.000 | ETA 1m 7s | step 0.12s | KE 88.1278 | drift +1.45% | fluid 7.3724 | solid 80.7553
  Impulse FP iterations last/mean/max 9/9.39/11
Step  1600/2000   80.0% | t 80.000 | ETA 53s | step 0.13s | KE 88.1291 | drift +1.45% | fluid 7.3968 | solid 80.7323
  Impulse FP iterations last/mean/max 9/9.37/11
Step  1700/2000   85.0% | t 85.000 | ETA 40s | step 0.13s | KE 88.1278 | drift +1.45% | fluid 7.4021 | solid 80.7257
  Impulse FP iterations last/mean/max 9/9.35/11
Step  1800/2000   90.0% | t 90.000 | ETA 26s | step 0.13s | KE 88.1372 | drift +1.46% | fluid 7.3132 | solid 80.8240
  Impulse FP iterations last/mean/max 9/9.32/11
Step  1900/2000   95.0% | t 95.000 | ETA 13s | step 0.13s | KE 88.1367 | drift +1.46% | fluid 7.3785 | solid 80.7583
  Impulse FP iterations last/mean/max 9/9.31/11
Solver finished successfully - good job!
Results saved successfully.

================== Run summary ==================
  Bodies:            2
  Triangles / nodes: 256 / 516
  Timesteps:         2000  (dt = 0.05)
  Simulated time:    0 -> 100
  First-step setup:  0.281 s
  Mean time/step:    0.1324 s  (excl. first step)
  Total wall time:   4m 24s
  Impulse FP iters last/mean/max: 9 / 9.287 / 11
  Approx impulse solves/step:     9.288
  Impulse start cache hits/direct: 1999 / 1
  Impulse global drift P/H:       1.628462e-8 / 6.642640e-3
  Impulse per-body max drift P/H: 2.187560e-8 / 9.228974e-3
  CPU cores:         256 available, 8 Rayon worker thread(s)
  Started:           2026-06-24 01:39:24
  Finished:          2026-06-24 01:43:49
  Output file:       /work/e643/e643/shared/multi_ellip/studies/two_body_paper_sweeps/runs/spheroid_1_0p7_0p7/spheroid_1_0p7_0p7_rho1_E30_sep3_run03_impulse_noproj/multiple_body_complete.dat
================================================
