
================ Simulation setup ================
  Run label:         /work/e643/e643/shared/multi_ellip/studies/two_body_paper_sweeps/runs/ellipsoid_1_0p8_0p6/ellipsoid_1_0p8_0p6_rho1_E11_sep3_run05_impulse_noproj/
  Started:           2026-06-24 01:44:17
  Input file:        /work/e643/e643/shared/multi_ellip/studies/two_body_paper_sweeps/runs/ellipsoid_1_0p8_0p6/ellipsoid_1_0p8_0p6_rho1_E11_sep3_run05_impulse_noproj/input.txt
  Output file:       /work/e643/e643/shared/multi_ellip/studies/two_body_paper_sweeps/runs/ellipsoid_1_0p8_0p6/ellipsoid_1_0p8_0p6_rho1_E11_sep3_run05_impulse_noproj/multiple_body_complete.dat
  Bodies:            2
  Fluid density:     1
  Mesh:              ndiv 2 -> 256 triangles / 516 nodes
  Simulated time:    0 -> 100  (dt = 0.05, ~2000 steps)
  Output cadence:    every 1 step(s)
  Output rows:       ~2001
  Progress cadence:  every 100 step(s)
  CPU cores:         256 available, 8 Rayon worker thread(s)
  Strong coupling:   disabled
  Impulse scheme:    enabled
  Hamiltonian step:  disabled
  Hamiltonian midpt: disabled
  Variational step:  disabled
  Energy projection: disabled
  Projection particular metric: Euclidean
  Fluid KE gradient: disabled  (eps = 0.001, scale = 1, linear = 1, angular = 1)
  Fluid KE discrete gradient: disabled
  Impulse pair metric correction: disabled  (mode = pair discrete-gradient, cutoff = all pairs, inner/outer = 0/0, eps = 0.001, linear scale = 1, angular scale = 0)
  Impulse metric correction: disabled  (internal load constraint = disabled)
  Impulse variational defect probe: disabled
  Impulse quadratic pressure: disabled  (scale = 1)
  Added-mass stab:   disabled
  Exact BEM geometry: disabled
  Exact singular BEM: disabled
  Legacy singular SLP diagnostic: disabled
  Phi-dot blend:     0 (off)

  Solver guidance:
    - Strong coupling: use for stiff close-coupled runs; slower but more implicit.
    - Impulse scheme: use when impulse/momentum conservation or KE drift is the focus. Recommended.
    - Added-mass stab: use for higher mesh counts (ndiv > 3) to preserve stability - deprecated.
================================================
Solver starting - good luck!

Initial state:
  Body  1
    density:          1.000000
    shape axes ratio: (1.000000, 0.800000, 0.600000)
    initial KE ratio: 11.000000
    position:         (-1.500000, 0.000000, 0.000000)
    velocity:         (0.537249, 1.055839, -0.172954)
    angular velocity: (4.982279, 1.374311, -3.573035)
    orientation:      (w=-0.117236, i=0.390496, j=-0.804369, k=0.432156)
  Body  2
    density:          1.000000
    shape axes ratio: (1.000000, 0.800000, 0.600000)
    initial KE ratio: 11.000000
    position:         (1.500000, 0.000000, 0.000000)
    velocity:         (0.534700, 1.050830, -0.172134)
    angular velocity: (4.796509, -2.770331, 2.966005)
    orientation:      (w=-0.996454, i=0.012615, j=-0.042694, k=0.071397)

Preparing first step: implicit scheme, no bootstrap passes required.
First step may take longer than later steps.

First step completed in 0.273 s.

Step   100/2000    5.0% | t 5.000 | ETA 4m 54s | step 0.18s | KE 80.0855 | drift +1.07% | fluid 10.7825 | solid 69.3031
  Impulse FP iterations last/mean/max 12/11.61/12
Step   200/2000   10.0% | t 10.000 | ETA 4m 48s | step 0.16s | KE 81.3033 | drift +2.60% | fluid 9.9732 | solid 71.3301
  Impulse FP iterations last/mean/max 11/11.54/12
Step   300/2000   15.0% | t 15.000 | ETA 4m 33s | step 0.16s | KE 82.3987 | drift +3.99% | fluid 9.6183 | solid 72.7804
  Impulse FP iterations last/mean/max 11/11.48/12
Step   400/2000   20.0% | t 20.000 | ETA 4m 18s | step 0.18s | KE 83.6706 | drift +5.59% | fluid 10.1236 | solid 73.5470
  Impulse FP iterations last/mean/max 12/11.47/12
Step   500/2000   25.0% | t 25.000 | ETA 4m 2s | step 0.17s | KE 84.6443 | drift +6.82% | fluid 7.9964 | solid 76.6478
  Impulse FP iterations last/mean/max 12/11.44/12
Step   600/2000   30.0% | t 30.000 | ETA 3m 46s | step 0.17s | KE 85.4753 | drift +7.87% | fluid 10.1211 | solid 75.3542
  Impulse FP iterations last/mean/max 11/11.42/12
Step   700/2000   35.0% | t 35.000 | ETA 3m 29s | step 0.16s | KE 86.0173 | drift +8.55% | fluid 9.5527 | solid 76.4646
  Impulse FP iterations last/mean/max 11/11.40/12
Step   800/2000   40.0% | t 40.000 | ETA 3m 13s | step 0.16s | KE 86.4103 | drift +9.05% | fluid 10.0038 | solid 76.4065
  Impulse FP iterations last/mean/max 11/11.37/12
Step   900/2000   45.0% | t 45.000 | ETA 2m 57s | step 0.17s | KE 86.7019 | drift +9.42% | fluid 9.2036 | solid 77.4983
  Impulse FP iterations last/mean/max 12/11.36/12
Step  1000/2000   50.0% | t 50.000 | ETA 2m 40s | step 0.17s | KE 86.9117 | drift +9.68% | fluid 11.3002 | solid 75.6115
  Impulse FP iterations last/mean/max 12/11.34/12
Step  1100/2000   55.0% | t 55.000 | ETA 2m 24s | step 0.17s | KE 87.0634 | drift +9.87% | fluid 7.8638 | solid 79.1995
  Impulse FP iterations last/mean/max 12/11.32/12
Step  1200/2000   60.0% | t 60.000 | ETA 2m 8s | step 0.17s | KE 87.1538 | drift +9.99% | fluid 10.7694 | solid 76.3845
  Impulse FP iterations last/mean/max 11/11.29/12
Step  1300/2000   65.0% | t 65.000 | ETA 1m 51s | step 0.15s | KE 87.1982 | drift +10.04% | fluid 9.7647 | solid 77.4335
  Impulse FP iterations last/mean/max 11/11.27/12
Step  1400/2000   70.0% | t 70.000 | ETA 1m 35s | step 0.16s | KE 87.2829 | drift +10.15% | fluid 7.4055 | solid 79.8774
  Impulse FP iterations last/mean/max 11/11.24/12
Step  1500/2000   75.0% | t 75.000 | ETA 1m 19s | step 0.15s | KE 87.3546 | drift +10.24% | fluid 10.0058 | solid 77.3488
  Impulse FP iterations last/mean/max 11/11.22/12
Step  1600/2000   80.0% | t 80.000 | ETA 1m 3s | step 0.16s | KE 87.3607 | drift +10.25% | fluid 8.7830 | solid 78.5777
  Impulse FP iterations last/mean/max 11/11.20/12
Step  1700/2000   85.0% | t 85.000 | ETA 47s | step 0.16s | KE 87.3938 | drift +10.29% | fluid 7.1338 | solid 80.2600
  Impulse FP iterations last/mean/max 11/11.18/12
Step  1800/2000   90.0% | t 90.000 | ETA 31s | step 0.16s | KE 87.4331 | drift +10.34% | fluid 10.4054 | solid 77.0276
  Impulse FP iterations last/mean/max 11/11.16/12
Step  1900/2000   95.0% | t 95.000 | ETA 15s | step 0.14s | KE 87.4540 | drift +10.37% | fluid 10.3749 | solid 77.0790
  Impulse FP iterations last/mean/max 11/11.15/12
Solver finished successfully - good job!
Results saved successfully.

================== Run summary ==================
  Bodies:            2
  Triangles / nodes: 256 / 516
  Timesteps:         2000  (dt = 0.05)
  Simulated time:    0 -> 100
  First-step setup:  0.273 s
  Mean time/step:    0.1559 s  (excl. first step)
  Total wall time:   5m 11s
  Impulse FP iters last/mean/max: 11 / 11.130 / 12
  Approx impulse solves/step:     11.131
  Impulse start cache hits/direct: 1999 / 1
  Impulse global drift P/H:       1.562718e-8 / 2.202147e-2
  Impulse per-body max drift P/H: 2.457548e-8 / 1.653933e-2
  CPU cores:         256 available, 8 Rayon worker thread(s)
  Started:           2026-06-24 01:44:17
  Finished:          2026-06-24 01:49:29
  Output file:       /work/e643/e643/shared/multi_ellip/studies/two_body_paper_sweeps/runs/ellipsoid_1_0p8_0p6/ellipsoid_1_0p8_0p6_rho1_E11_sep3_run05_impulse_noproj/multiple_body_complete.dat
================================================
