
================ Simulation setup ================
  Run label:         /work/e643/e643/shared/multi_ellip/studies/departing_sphericity_sweep/runs/spheroid_oblate/homogeneous/spheroid_oblate_homogeneous_eps1_rho1_E0p5_sep8_run09_impulse_noproj/
  Started:           2026-06-24 02:38:57
  Input file:        /work/e643/e643/shared/multi_ellip/studies/departing_sphericity_sweep/runs/spheroid_oblate/homogeneous/spheroid_oblate_homogeneous_eps1_rho1_E0p5_sep8_run09_impulse_noproj/input.txt
  Output file:       /work/e643/e643/shared/multi_ellip/studies/departing_sphericity_sweep/runs/spheroid_oblate/homogeneous/spheroid_oblate_homogeneous_eps1_rho1_E0p5_sep8_run09_impulse_noproj/multiple_body_complete.dat
  Bodies:            2
  Fluid density:     1
  Mesh:              ndiv 2 -> 256 triangles / 516 nodes
  Simulated time:    0 -> 100  (dt = 0.05, ~2000 steps)
  Output cadence:    every 1 step(s)
  Output rows:       ~2001
  Progress cadence:  every 100 step(s)
  CPU cores:         256 available, 8 Rayon worker thread(s)
  Strong coupling:   disabled
  Impulse scheme:    enabled
  Hamiltonian step:  disabled
  Hamiltonian midpt: disabled
  Variational step:  disabled
  Energy projection: disabled
  Projection particular metric: Euclidean
  Fluid KE gradient: disabled  (eps = 0.001, scale = 1, linear = 1, angular = 1)
  Fluid KE discrete gradient: disabled
  Impulse pair metric correction: disabled  (mode = pair discrete-gradient, cutoff = all pairs, inner/outer = 0/0, eps = 0.001, linear scale = 1, angular scale = 0)
  Impulse metric correction: disabled  (internal load constraint = disabled)
  Impulse variational defect probe: disabled
  Impulse quadratic pressure: disabled  (scale = 1)
  Added-mass stab:   disabled
  Exact BEM geometry: disabled
  Exact singular BEM: disabled
  Legacy singular SLP diagnostic: disabled
  Phi-dot blend:     0 (off)

  Solver guidance:
    - Strong coupling: use for stiff close-coupled runs; slower but more implicit.
    - Impulse scheme: use when impulse/momentum conservation or KE drift is the focus. Recommended.
    - Added-mass stab: use for higher mesh counts (ndiv > 3) to preserve stability - deprecated.
================================================
Solver starting - good luck!

Initial state:
  Body  1
    density:          1.000000
    shape axes ratio: (1.000000, 1.000000, 0.125000)
    initial KE ratio: 0.500000
    position:         (-4.000000, 0.000000, 0.000000)
    velocity:         (0.323884, 7.954391, -0.914546)
    angular velocity: (-6.218350, -0.878450, 0.197131)
    orientation:      (w=-0.049993, i=0.476803, j=-0.877342, k=-0.020737)
  Body  2
    density:          1.000000
    shape axes ratio: (1.000000, 1.000000, 0.125000)
    initial KE ratio: 0.500000
    position:         (4.000000, 0.000000, 0.000000)
    velocity:         (0.423351, 10.397248, -1.195411)
    angular velocity: (0.275835, 3.236704, -5.378297)
    orientation:      (w=0.050672, i=-0.876751, j=0.455968, k=0.144336)

Preparing first step: implicit scheme, no bootstrap passes required.
First step may take longer than later steps.

First step completed in 0.315 s.

Step   100/2000    5.0% | t 5.000 | ETA 8m 34s | step 0.26s | KE 973.0152 | drift -2.63% | fluid 445.1096 | solid 527.9056
  Impulse FP iterations last/mean/max 18/18.27/30
Step   200/2000   10.0% | t 10.000 | ETA 7m 48s | step 0.24s | KE 968.7649 | drift -3.06% | fluid 647.9481 | solid 320.8168
  Impulse FP iterations last/mean/max 18/18.39/30
Step   300/2000   15.0% | t 15.000 | ETA 7m 17s | step 0.23s | KE 976.1752 | drift -2.31% | fluid 354.0758 | solid 622.0994
  Impulse FP iterations last/mean/max 16/18.43/30
Step   400/2000   20.0% | t 20.000 | ETA 6m 59s | step 0.26s | KE 976.3386 | drift -2.30% | fluid 321.9943 | solid 654.3443
  Impulse FP iterations last/mean/max 17/18.46/30
Step   500/2000   25.0% | t 25.000 | ETA 6m 36s | step 0.29s | KE 969.8945 | drift -2.94% | fluid 592.4003 | solid 377.4942
  Impulse FP iterations last/mean/max 19/18.43/30
Step   600/2000   30.0% | t 30.000 | ETA 6m 8s | step 0.23s | KE 974.1812 | drift -2.51% | fluid 465.7865 | solid 508.3948
  Impulse FP iterations last/mean/max 20/18.52/30
Step   700/2000   35.0% | t 35.000 | ETA 5m 27s | step 0.17s | KE 975.7515 | drift -2.36% | fluid 386.7179 | solid 589.0336
  Impulse FP iterations last/mean/max 17/18.45/30
Step   800/2000   40.0% | t 40.000 | ETA 4m 49s | step 0.17s | KE 970.4511 | drift -2.89% | fluid 504.0646 | solid 466.3866
  Impulse FP iterations last/mean/max 18/18.39/30
Step   900/2000   45.0% | t 45.000 | ETA 4m 16s | step 0.16s | KE 975.8071 | drift -2.35% | fluid 380.9417 | solid 594.8654
  Impulse FP iterations last/mean/max 17/18.41/30
Step  1000/2000   50.0% | t 50.000 | ETA 3m 47s | step 0.15s | KE 974.4048 | drift -2.49% | fluid 451.6949 | solid 522.7099
  Impulse FP iterations last/mean/max 16/18.38/30
Step  1100/2000   55.0% | t 55.000 | ETA 3m 19s | step 0.18s | KE 969.7738 | drift -2.96% | fluid 605.5731 | solid 364.2007
  Impulse FP iterations last/mean/max 20/18.40/30
Step  1200/2000   60.0% | t 60.000 | ETA 2m 54s | step 0.16s | KE 976.1523 | drift -2.32% | fluid 342.4218 | solid 633.7304
  Impulse FP iterations last/mean/max 18/18.37/30
Step  1300/2000   65.0% | t 65.000 | ETA 2m 29s | step 0.16s | KE 976.4360 | drift -2.29% | fluid 329.5892 | solid 646.8468
  Impulse FP iterations last/mean/max 17/18.35/30
Step  1400/2000   70.0% | t 70.000 | ETA 2m 6s | step 0.18s | KE 969.1626 | drift -3.02% | fluid 627.6758 | solid 341.4868
  Impulse FP iterations last/mean/max 20/18.36/30
Step  1500/2000   75.0% | t 75.000 | ETA 1m 43s | step 0.16s | KE 974.1260 | drift -2.52% | fluid 473.7665 | solid 500.3595
  Impulse FP iterations last/mean/max 17/18.34/30
Step  1600/2000   80.0% | t 80.000 | ETA 1m 22s | step 0.16s | KE 976.6669 | drift -2.27% | fluid 312.3301 | solid 664.3368
  Impulse FP iterations last/mean/max 17/18.34/30
Step  1700/2000   85.0% | t 85.000 | ETA 1m 1s | step 0.16s | KE 971.6823 | drift -2.76% | fluid 498.8309 | solid 472.8514
  Impulse FP iterations last/mean/max 17/18.34/30
Step  1800/2000   90.0% | t 90.000 | ETA 40s | step 0.17s | KE 974.2735 | drift -2.50% | fluid 478.6683 | solid 495.6051
  Impulse FP iterations last/mean/max 19/18.33/30
Step  1900/2000   95.0% | t 95.000 | ETA 19s | step 0.18s | KE 974.6687 | drift -2.47% | fluid 429.2467 | solid 545.4220
  Impulse FP iterations last/mean/max 20/18.34/30
Solver finished successfully - good job!
Results saved successfully.

================== Run summary ==================
  Bodies:            2
  Triangles / nodes: 256 / 516
  Timesteps:         2000  (dt = 0.05)
  Simulated time:    0 -> 100
  First-step setup:  0.315 s
  Mean time/step:    0.1979 s  (excl. first step)
  Total wall time:   6m 35s
  Impulse FP iters last/mean/max: 17 / 18.328 / 30
  Approx impulse solves/step:     18.328
  Impulse start cache hits/direct: 1999 / 1
  Impulse global drift P/H:       1.160962e-9 / 3.258478e-3
  Impulse per-body max drift P/H: 1.608343e-9 / 1.924050e-3
  CPU cores:         256 available, 8 Rayon worker thread(s)
  Started:           2026-06-24 02:38:57
  Finished:          2026-06-24 02:45:33
  Output file:       /work/e643/e643/shared/multi_ellip/studies/departing_sphericity_sweep/runs/spheroid_oblate/homogeneous/spheroid_oblate_homogeneous_eps1_rho1_E0p5_sep8_run09_impulse_noproj/multiple_body_complete.dat
================================================
