
================ Simulation setup ================
  Run label:         /work/e643/e643/shared/multi_ellip/studies/two_body_paper_sweeps/runs/ellipsoid_1_0p8_0p6/ellipsoid_1_0p8_0p6_rho4_E0p2_sep5_run02_impulse_noproj/
  Started:           2026-06-22 19:26:46
  Input file:        /work/e643/e643/shared/multi_ellip/studies/two_body_paper_sweeps/runs/ellipsoid_1_0p8_0p6/ellipsoid_1_0p8_0p6_rho4_E0p2_sep5_run02_impulse_noproj/input.txt
  Output file:       /work/e643/e643/shared/multi_ellip/studies/two_body_paper_sweeps/runs/ellipsoid_1_0p8_0p6/ellipsoid_1_0p8_0p6_rho4_E0p2_sep5_run02_impulse_noproj/multiple_body_complete.dat
  Bodies:            2
  Fluid density:     1
  Mesh:              ndiv 2 -> 256 triangles / 516 nodes
  Simulated time:    0 -> 100  (dt = 0.05, ~2000 steps)
  Output cadence:    every 1 step(s)
  Output rows:       ~2001
  Progress cadence:  every 100 step(s)
  CPU cores:         256 available, 8 Rayon worker thread(s)
  Strong coupling:   disabled
  Impulse scheme:    enabled
  Hamiltonian step:  disabled
  Hamiltonian midpt: disabled
  Variational step:  disabled
  Energy projection: disabled
  Projection particular metric: Euclidean
  Fluid KE gradient: disabled  (eps = 0.001, scale = 1, linear = 1, angular = 1)
  Fluid KE discrete gradient: disabled
  Impulse pair metric correction: disabled  (mode = pair discrete-gradient, cutoff = all pairs, inner/outer = 0/0, eps = 0.001, linear scale = 1, angular scale = 0)
  Impulse metric correction: disabled  (internal load constraint = disabled)
  Impulse variational defect probe: disabled
  Impulse quadratic pressure: disabled  (scale = 1)
  Added-mass stab:   disabled
  Exact BEM geometry: disabled
  Exact singular BEM: disabled
  Legacy singular SLP diagnostic: disabled
  Phi-dot blend:     0 (off)

  Solver guidance:
    - Strong coupling: use for stiff close-coupled runs; slower but more implicit.
    - Impulse scheme: use when impulse/momentum conservation or KE drift is the focus. Recommended.
    - Added-mass stab: use for higher mesh counts (ndiv > 3) to preserve stability - deprecated.
================================================
Solver starting - good luck!

Initial state:
  Body  1
    density:          4.000000
    shape axes ratio: (1.000000, 0.800000, 0.600000)
    initial KE ratio: 0.200000
    position:         (-2.500000, 0.000000, 0.000000)
    velocity:         (-4.031684, 3.900332, -7.008439)
    angular velocity: (4.620834, -2.447049, -3.484002)
    orientation:      (w=0.577350, i=0.577350, j=0.577350, k=0.000000)
  Body  2
    density:          4.000000
    shape axes ratio: (1.000000, 0.800000, 0.600000)
    initial KE ratio: 0.200000
    position:         (2.500000, 0.000000, 0.000000)
    velocity:         (-4.049980, 3.918032, -7.040244)
    angular velocity: (-3.347384, -5.251328, -0.834861)
    orientation:      (w=0.577350, i=-0.577350, j=0.000000, k=0.577350)

Preparing first step: implicit scheme, no bootstrap passes required.
First step may take longer than later steps.

First step completed in 0.255 s.

Step   100/2000    5.0% | t 5.000 | ETA 3m 54s | step 0.12s | KE 1691.3169 | drift -7.30% | fluid 201.1143 | solid 1490.2026
  Impulse FP iterations last/mean/max 9/8.93/10
Step   200/2000   10.0% | t 10.000 | ETA 3m 39s | step 0.12s | KE 1643.4652 | drift -9.93% | fluid 162.3556 | solid 1481.1096
  Impulse FP iterations last/mean/max 9/8.89/10
Step   300/2000   15.0% | t 15.000 | ETA 3m 27s | step 0.13s | KE 1691.4964 | drift -7.29% | fluid 230.7120 | solid 1460.7844
  Impulse FP iterations last/mean/max 9/8.91/10
Step   400/2000   20.0% | t 20.000 | ETA 3m 15s | step 0.12s | KE 1738.5276 | drift -4.72% | fluid 169.8854 | solid 1568.6421
  Impulse FP iterations last/mean/max 9/8.91/10
Step   500/2000   25.0% | t 25.000 | ETA 3m 3s | step 0.12s | KE 1826.3261 | drift +0.10% | fluid 186.2426 | solid 1640.0835
  Impulse FP iterations last/mean/max 9/8.92/10
Step   600/2000   30.0% | t 30.000 | ETA 2m 51s | step 0.14s | KE 1925.7192 | drift +5.54% | fluid 216.0475 | solid 1709.6717
  Impulse FP iterations last/mean/max 9/8.93/10
Step   700/2000   35.0% | t 35.000 | ETA 2m 39s | step 0.11s | KE 2181.8260 | drift +19.58% | fluid 187.5039 | solid 1994.3222
  Impulse FP iterations last/mean/max 8/8.93/10
Step   800/2000   40.0% | t 40.000 | ETA 2m 27s | step 0.12s | KE 2462.6655 | drift +34.97% | fluid 201.8657 | solid 2260.7997
  Impulse FP iterations last/mean/max 9/8.95/10
Step   900/2000   45.0% | t 45.000 | ETA 2m 15s | step 0.12s | KE 2712.6284 | drift +48.67% | fluid 228.1486 | solid 2484.4799
  Impulse FP iterations last/mean/max 9/8.95/10
Step  1000/2000   50.0% | t 50.000 | ETA 2m 3s | step 0.12s | KE 2920.1852 | drift +60.05% | fluid 227.0765 | solid 2693.1087
  Impulse FP iterations last/mean/max 9/8.96/10
Step  1100/2000   55.0% | t 55.000 | ETA 1m 50s | step 0.13s | KE 3107.3544 | drift +70.30% | fluid 241.5592 | solid 2865.7951
  Impulse FP iterations last/mean/max 9/8.96/10
Step  1200/2000   60.0% | t 60.000 | ETA 1m 38s | step 0.13s | KE 3250.4242 | drift +78.15% | fluid 189.2380 | solid 3061.1863
  Impulse FP iterations last/mean/max 9/8.97/10
Step  1300/2000   65.0% | t 65.000 | ETA 1m 26s | step 0.13s | KE 3343.9307 | drift +83.27% | fluid 200.9153 | solid 3143.0154
  Impulse FP iterations last/mean/max 9/8.97/10
Step  1400/2000   70.0% | t 70.000 | ETA 1m 14s | step 0.13s | KE 3399.9197 | drift +86.34% | fluid 248.2133 | solid 3151.7064
  Impulse FP iterations last/mean/max 10/8.98/10
Step  1500/2000   75.0% | t 75.000 | ETA 1m 1s | step 0.12s | KE 3479.8788 | drift +90.72% | fluid 210.2243 | solid 3269.6545
  Impulse FP iterations last/mean/max 9/8.98/10
Step  1600/2000   80.0% | t 80.000 | ETA 49s | step 0.09s | KE 3520.4254 | drift +92.94% | fluid 206.0119 | solid 3314.4134
  Impulse FP iterations last/mean/max 9/8.98/10
Step  1700/2000   85.0% | t 85.000 | ETA 36s | step 0.08s | KE 3522.9641 | drift +93.08% | fluid 239.5208 | solid 3283.4432
  Impulse FP iterations last/mean/max 9/8.98/10
Step  1800/2000   90.0% | t 90.000 | ETA 23s | step 0.08s | KE 3567.7063 | drift +95.53% | fluid 193.0417 | solid 3374.6645
  Impulse FP iterations last/mean/max 9/8.99/10
Step  1900/2000   95.0% | t 95.000 | ETA 11s | step 0.09s | KE 3575.0960 | drift +95.94% | fluid 213.5795 | solid 3361.5165
  Impulse FP iterations last/mean/max 9/8.99/10
Solver finished successfully - good job!
Results saved successfully.

================== Run summary ==================
  Bodies:            2
  Triangles / nodes: 256 / 516
  Timesteps:         2000  (dt = 0.05)
  Simulated time:    0 -> 100
  First-step setup:  0.255 s
  Mean time/step:    0.1146 s  (excl. first step)
  Total wall time:   3m 49s
  Impulse FP iters last/mean/max: 9 / 8.986 / 10
  Approx impulse solves/step:     8.987
  Impulse start cache hits/direct: 1999 / 1
  Impulse global drift P/H:       1.324249e-9 / 2.865213e-1
  Impulse per-body max drift P/H: 2.417835e-9 / 6.394536e-2
  CPU cores:         256 available, 8 Rayon worker thread(s)
  Started:           2026-06-22 19:26:46
  Finished:          2026-06-22 19:30:35
  Output file:       /work/e643/e643/shared/multi_ellip/studies/two_body_paper_sweeps/runs/ellipsoid_1_0p8_0p6/ellipsoid_1_0p8_0p6_rho4_E0p2_sep5_run02_impulse_noproj/multiple_body_complete.dat
================================================
