
================ Simulation setup ================
  Run label:         /work/e643/e643/shared/multi_ellip/studies/departing_sphericity_sweep/runs/triaxial/heterogeneous_sphere/triaxial_heterogeneous_sphere_eps0p3_rho1_E0p5_sep8_run07_impulse_noproj/
  Started:           2026-06-24 02:46:59
  Input file:        /work/e643/e643/shared/multi_ellip/studies/departing_sphericity_sweep/runs/triaxial/heterogeneous_sphere/triaxial_heterogeneous_sphere_eps0p3_rho1_E0p5_sep8_run07_impulse_noproj/input.txt
  Output file:       /work/e643/e643/shared/multi_ellip/studies/departing_sphericity_sweep/runs/triaxial/heterogeneous_sphere/triaxial_heterogeneous_sphere_eps0p3_rho1_E0p5_sep8_run07_impulse_noproj/multiple_body_complete.dat
  Bodies:            2
  Fluid density:     1
  Mesh:              ndiv 2 -> 256 triangles / 516 nodes
  Simulated time:    0 -> 100  (dt = 0.05, ~2000 steps)
  Output cadence:    every 1 step(s)
  Output rows:       ~2001
  Progress cadence:  every 100 step(s)
  CPU cores:         256 available, 8 Rayon worker thread(s)
  Strong coupling:   disabled
  Impulse scheme:    enabled
  Hamiltonian step:  disabled
  Hamiltonian midpt: disabled
  Variational step:  disabled
  Energy projection: disabled
  Projection particular metric: Euclidean
  Fluid KE gradient: disabled  (eps = 0.001, scale = 1, linear = 1, angular = 1)
  Fluid KE discrete gradient: disabled
  Impulse pair metric correction: disabled  (mode = pair discrete-gradient, cutoff = all pairs, inner/outer = 0/0, eps = 0.001, linear scale = 1, angular scale = 0)
  Impulse metric correction: disabled  (internal load constraint = disabled)
  Impulse variational defect probe: disabled
  Impulse quadratic pressure: disabled  (scale = 1)
  Added-mass stab:   disabled
  Exact BEM geometry: disabled
  Exact singular BEM: disabled
  Legacy singular SLP diagnostic: disabled
  Phi-dot blend:     0 (off)

  Solver guidance:
    - Strong coupling: use for stiff close-coupled runs; slower but more implicit.
    - Impulse scheme: use when impulse/momentum conservation or KE drift is the focus. Recommended.
    - Added-mass stab: use for higher mesh counts (ndiv > 3) to preserve stability - deprecated.
================================================
Solver starting - good luck!

Initial state:
  Body  1
    density:          1.000000
    shape axes ratio: (1.000000, 0.769231, 0.591716)
    initial KE ratio: 0.500000
    position:         (-4.000000, 0.000000, 0.000000)
    velocity:         (-2.987282, -4.165714, -3.098130)
    angular velocity: (1.250184, 6.019065, 1.298580)
    orientation:      (w=0.058409, i=-0.515007, j=0.823090, k=-0.232120)
  Body  2
    density:          1.000000
    shape axes ratio: (1.000000, 1.000000, 1.000000)
    initial KE ratio: 0.500000
    position:         (4.000000, 0.000000, 0.000000)
    velocity:         (-2.802867, -3.908550, -2.906872)
    angular velocity: (1.308056, -2.866141, 5.436234)
    orientation:      (w=0.677923, i=-0.711876, j=0.074983, k=-0.167424)

Preparing first step: implicit scheme, no bootstrap passes required.
First step may take longer than later steps.

First step completed in 0.376 s.

Step   100/2000    5.0% | t 5.000 | ETA 4m 14s | step 0.12s | KE 268.8524 | drift -3.89% | fluid 75.9517 | solid 192.9007
  Impulse FP iterations last/mean/max 10/9.96/11
Step   200/2000   10.0% | t 10.000 | ETA 3m 58s | step 0.13s | KE 266.4417 | drift -4.75% | fluid 76.1965 | solid 190.2452
  Impulse FP iterations last/mean/max 10/9.96/11
Step   300/2000   15.0% | t 15.000 | ETA 3m 49s | step 0.14s | KE 266.9209 | drift -4.58% | fluid 77.6273 | solid 189.2936
  Impulse FP iterations last/mean/max 10/9.98/11
Step   400/2000   20.0% | t 20.000 | ETA 3m 40s | step 0.14s | KE 267.7801 | drift -4.28% | fluid 75.6121 | solid 192.1680
  Impulse FP iterations last/mean/max 10/9.97/11
Step   500/2000   25.0% | t 25.000 | ETA 3m 28s | step 0.15s | KE 268.1740 | drift -4.14% | fluid 76.1027 | solid 192.0713
  Impulse FP iterations last/mean/max 10/9.97/11
Step   600/2000   30.0% | t 30.000 | ETA 3m 15s | step 0.15s | KE 268.1879 | drift -4.13% | fluid 82.6914 | solid 185.4965
  Impulse FP iterations last/mean/max 10/9.96/11
Step   700/2000   35.0% | t 35.000 | ETA 3m 2s | step 0.12s | KE 268.7694 | drift -3.92% | fluid 78.0811 | solid 190.6884
  Impulse FP iterations last/mean/max 9/9.96/11
Step   800/2000   40.0% | t 40.000 | ETA 2m 49s | step 0.14s | KE 268.5593 | drift -4.00% | fluid 82.5702 | solid 185.9891
  Impulse FP iterations last/mean/max 10/9.96/11
Step   900/2000   45.0% | t 45.000 | ETA 2m 35s | step 0.15s | KE 268.9579 | drift -3.86% | fluid 76.7108 | solid 192.2470
  Impulse FP iterations last/mean/max 10/9.95/11
Step  1000/2000   50.0% | t 50.000 | ETA 2m 21s | step 0.15s | KE 268.4952 | drift -4.02% | fluid 84.6139 | solid 183.8814
  Impulse FP iterations last/mean/max 10/9.95/11
Step  1100/2000   55.0% | t 55.000 | ETA 2m 7s | step 0.15s | KE 268.9836 | drift -3.85% | fluid 76.6873 | solid 192.2963
  Impulse FP iterations last/mean/max 10/9.95/11
Step  1200/2000   60.0% | t 60.000 | ETA 1m 53s | step 0.14s | KE 268.9554 | drift -3.86% | fluid 78.7063 | solid 190.2491
  Impulse FP iterations last/mean/max 9/9.95/11
Step  1300/2000   65.0% | t 65.000 | ETA 1m 39s | step 0.14s | KE 268.6679 | drift -3.96% | fluid 80.8615 | solid 187.8063
  Impulse FP iterations last/mean/max 10/9.95/11
Step  1400/2000   70.0% | t 70.000 | ETA 1m 25s | step 0.14s | KE 268.7287 | drift -3.94% | fluid 79.2216 | solid 189.5071
  Impulse FP iterations last/mean/max 10/9.95/11
Step  1500/2000   75.0% | t 75.000 | ETA 1m 11s | step 0.15s | KE 268.5748 | drift -3.99% | fluid 81.8445 | solid 186.7303
  Impulse FP iterations last/mean/max 10/9.95/11
Step  1600/2000   80.0% | t 80.000 | ETA 56s | step 0.13s | KE 268.8377 | drift -3.90% | fluid 83.0066 | solid 185.8311
  Impulse FP iterations last/mean/max 10/9.95/11
Step  1700/2000   85.0% | t 85.000 | ETA 42s | step 0.11s | KE 268.8020 | drift -3.91% | fluid 76.0147 | solid 192.7873
  Impulse FP iterations last/mean/max 9/9.95/11
Step  1800/2000   90.0% | t 90.000 | ETA 27s | step 0.12s | KE 268.8329 | drift -3.90% | fluid 78.3074 | solid 190.5255
  Impulse FP iterations last/mean/max 10/9.94/11
Step  1900/2000   95.0% | t 95.000 | ETA 13s | step 0.10s | KE 268.5316 | drift -4.01% | fluid 82.9871 | solid 185.5444
  Impulse FP iterations last/mean/max 10/9.94/11
Solver finished successfully - good job!
Results saved successfully.

================== Run summary ==================
  Bodies:            2
  Triangles / nodes: 256 / 516
  Timesteps:         2000  (dt = 0.05)
  Simulated time:    0 -> 100
  First-step setup:  0.376 s
  Mean time/step:    0.1348 s  (excl. first step)
  Total wall time:   4m 29s
  Impulse FP iters last/mean/max: 10 / 9.941 / 11
  Approx impulse solves/step:     9.941
  Impulse start cache hits/direct: 1999 / 1
  Impulse global drift P/H:       2.197974e-9 / 2.109017e-2
  Impulse per-body max drift P/H: 3.943146e-9 / 3.277137e-3
  CPU cores:         256 available, 8 Rayon worker thread(s)
  Started:           2026-06-24 02:46:59
  Finished:          2026-06-24 02:51:29
  Output file:       /work/e643/e643/shared/multi_ellip/studies/departing_sphericity_sweep/runs/triaxial/heterogeneous_sphere/triaxial_heterogeneous_sphere_eps0p3_rho1_E0p5_sep8_run07_impulse_noproj/multiple_body_complete.dat
================================================
