
================ Simulation setup ================
  Run label:         /work/e643/e643/shared/multi_ellip/studies/departing_sphericity_sweep/runs/spheroid_prolate/homogeneous/spheroid_prolate_homogeneous_eps0p0003_rho1_E0p5_sep8_run03_impulse_noproj/
  Started:           2026-06-24 02:23:11
  Input file:        /work/e643/e643/shared/multi_ellip/studies/departing_sphericity_sweep/runs/spheroid_prolate/homogeneous/spheroid_prolate_homogeneous_eps0p0003_rho1_E0p5_sep8_run03_impulse_noproj/input.txt
  Output file:       /work/e643/e643/shared/multi_ellip/studies/departing_sphericity_sweep/runs/spheroid_prolate/homogeneous/spheroid_prolate_homogeneous_eps0p0003_rho1_E0p5_sep8_run03_impulse_noproj/multiple_body_complete.dat
  Bodies:            2
  Fluid density:     1
  Mesh:              ndiv 2 -> 256 triangles / 516 nodes
  Simulated time:    0 -> 100  (dt = 0.05, ~2000 steps)
  Output cadence:    every 1 step(s)
  Output rows:       ~2001
  Progress cadence:  every 100 step(s)
  CPU cores:         256 available, 8 Rayon worker thread(s)
  Strong coupling:   disabled
  Impulse scheme:    enabled
  Hamiltonian step:  disabled
  Hamiltonian midpt: disabled
  Variational step:  disabled
  Energy projection: disabled
  Projection particular metric: Euclidean
  Fluid KE gradient: disabled  (eps = 0.001, scale = 1, linear = 1, angular = 1)
  Fluid KE discrete gradient: disabled
  Impulse pair metric correction: disabled  (mode = pair discrete-gradient, cutoff = all pairs, inner/outer = 0/0, eps = 0.001, linear scale = 1, angular scale = 0)
  Impulse metric correction: disabled  (internal load constraint = disabled)
  Impulse variational defect probe: disabled
  Impulse quadratic pressure: disabled  (scale = 1)
  Added-mass stab:   disabled
  Exact BEM geometry: disabled
  Exact singular BEM: disabled
  Legacy singular SLP diagnostic: disabled
  Phi-dot blend:     0 (off)

  Solver guidance:
    - Strong coupling: use for stiff close-coupled runs; slower but more implicit.
    - Impulse scheme: use when impulse/momentum conservation or KE drift is the focus. Recommended.
    - Added-mass stab: use for higher mesh counts (ndiv > 3) to preserve stability - deprecated.
================================================
Solver starting - good luck!

Initial state:
  Body  1
    density:          1.000000
    shape axes ratio: (1.000000, 0.999101, 0.999101)
    initial KE ratio: 0.500000
    position:         (-4.000000, 0.000000, 0.000000)
    velocity:         (4.117309, 3.796426, 0.452613)
    angular velocity: (5.562569, -0.319345, -2.904180)
    orientation:      (w=0.721181, i=-0.487140, j=0.009206, k=-0.492451)
  Body  2
    density:          1.000000
    shape axes ratio: (1.000000, 0.999101, 0.999101)
    initial KE ratio: 0.500000
    position:         (4.000000, 0.000000, 0.000000)
    velocity:         (4.117723, 3.796809, 0.452658)
    angular velocity: (4.701771, 1.664674, -3.821077)
    orientation:      (w=-0.431186, i=0.428722, j=-0.037369, k=0.793019)

Preparing first step: implicit scheme, no bootstrap passes required.
First step may take longer than later steps.

First step completed in 8.523 s.

Step   100/2000    5.0% | t 5.000 | ETA 3m 3s | step 0.10s | KE 283.4846 | drift +4.74% | fluid 72.2360 | solid 211.2485
  Impulse FP iterations last/mean/max 7/6.97/7
Step   200/2000   10.0% | t 10.000 | ETA 2m 53s | step 0.09s | KE 299.4875 | drift +10.65% | fluid 72.2385 | solid 227.2490
  Impulse FP iterations last/mean/max 7/6.98/7
Step   300/2000   15.0% | t 15.000 | ETA 2m 45s | step 0.10s | KE 318.6654 | drift +17.74% | fluid 72.2548 | solid 246.4106
  Impulse FP iterations last/mean/max 7/6.99/7
Step   400/2000   20.0% | t 20.000 | ETA 2m 36s | step 0.10s | KE 341.0322 | drift +26.00% | fluid 72.2515 | solid 268.7807
  Impulse FP iterations last/mean/max 7/7.00/8
Step   500/2000   25.0% | t 25.000 | ETA 2m 27s | step 0.10s | KE 366.5965 | drift +35.45% | fluid 72.2371 | solid 294.3594
  Impulse FP iterations last/mean/max 7/7.03/8
Step   600/2000   30.0% | t 30.000 | ETA 2m 18s | step 0.10s | KE 395.3697 | drift +46.08% | fluid 72.2419 | solid 323.1278
  Impulse FP iterations last/mean/max 8/7.07/8
Step   700/2000   35.0% | t 35.000 | ETA 2m 9s | step 0.11s | KE 427.3630 | drift +57.90% | fluid 72.2485 | solid 355.1144
  Impulse FP iterations last/mean/max 8/7.11/8
Step   800/2000   40.0% | t 40.000 | ETA 2m 0s | step 0.11s | KE 462.5909 | drift +70.92% | fluid 72.2569 | solid 390.3340
  Impulse FP iterations last/mean/max 8/7.17/8
Step   900/2000   45.0% | t 45.000 | ETA 1m 51s | step 0.10s | KE 501.0793 | drift +85.14% | fluid 72.2382 | solid 428.8411
  Impulse FP iterations last/mean/max 7/7.21/8
Step  1000/2000   50.0% | t 50.000 | ETA 1m 41s | step 0.11s | KE 542.8246 | drift +100.56% | fluid 72.2479 | solid 470.5767
  Impulse FP iterations last/mean/max 8/7.26/8
Step  1100/2000   55.0% | t 55.000 | ETA 1m 31s | step 0.11s | KE 587.8520 | drift +117.20% | fluid 72.2546 | solid 515.5974
  Impulse FP iterations last/mean/max 8/7.30/8
Step  1200/2000   60.0% | t 60.000 | ETA 1m 21s | step 0.11s | KE 636.1722 | drift +135.05% | fluid 72.2573 | solid 563.9149
  Impulse FP iterations last/mean/max 8/7.33/8
Step  1300/2000   65.0% | t 65.000 | ETA 1m 11s | step 0.12s | KE 687.8179 | drift +154.13% | fluid 72.2419 | solid 615.5760
  Impulse FP iterations last/mean/max 8/7.36/8
Step  1400/2000   70.0% | t 70.000 | ETA 1m 1s | step 0.10s | KE 742.7816 | drift +174.44% | fluid 72.2424 | solid 670.5392
  Impulse FP iterations last/mean/max 8/7.40/8
Step  1500/2000   75.0% | t 75.000 | ETA 51s | step 0.09s | KE 801.0728 | drift +195.98% | fluid 72.2546 | solid 728.8182
  Impulse FP iterations last/mean/max 8/7.43/8
Step  1600/2000   80.0% | t 80.000 | ETA 41s | step 0.09s | KE 862.7457 | drift +218.77% | fluid 72.2404 | solid 790.5052
  Impulse FP iterations last/mean/max 8/7.45/8
Step  1700/2000   85.0% | t 85.000 | ETA 30s | step 0.09s | KE 927.7520 | drift +242.78% | fluid 72.2606 | solid 855.4914
  Impulse FP iterations last/mean/max 8/7.48/8
Step  1800/2000   90.0% | t 90.000 | ETA 20s | step 0.08s | KE 996.1813 | drift +268.07% | fluid 72.2474 | solid 923.9339
  Impulse FP iterations last/mean/max 8/7.50/8
Step  1900/2000   95.0% | t 95.000 | ETA 9s | step 0.07s | KE 1067.9788 | drift +294.60% | fluid 72.2593 | solid 995.7195
  Impulse FP iterations last/mean/max 8/7.52/8
Solver finished successfully - good job!
Results saved successfully.

================== Run summary ==================
  Bodies:            2
  Triangles / nodes: 256 / 516
  Timesteps:         2000  (dt = 0.05)
  Simulated time:    0 -> 100
  First-step setup:  8.523 s
  Mean time/step:    0.0977 s  (excl. first step)
  Total wall time:   3m 23s
  Impulse FP iters last/mean/max: 8 / 7.543 / 8
  Approx impulse solves/step:     7.544
  Impulse start cache hits/direct: 1999 / 1
  Impulse global drift P/H:       1.131263e-8 / 7.413573e-2
  Impulse per-body max drift P/H: 1.444464e-8 / 8.163458e-3
  CPU cores:         256 available, 8 Rayon worker thread(s)
  Started:           2026-06-24 02:23:11
  Finished:          2026-06-24 02:26:35
  Output file:       /work/e643/e643/shared/multi_ellip/studies/departing_sphericity_sweep/runs/spheroid_prolate/homogeneous/spheroid_prolate_homogeneous_eps0p0003_rho1_E0p5_sep8_run03_impulse_noproj/multiple_body_complete.dat
================================================
