
================ Simulation setup ================
  Run label:         /work/e643/e643/shared/multi_ellip/studies/two_body_paper_sweeps/runs/ellipsoid_1_0p8_0p6/ellipsoid_1_0p8_0p6_rho0p3_E11_sep5_run01_impulse_noproj/
  Started:           2026-06-22 19:47:30
  Input file:        /work/e643/e643/shared/multi_ellip/studies/two_body_paper_sweeps/runs/ellipsoid_1_0p8_0p6/ellipsoid_1_0p8_0p6_rho0p3_E11_sep5_run01_impulse_noproj/input.txt
  Output file:       /work/e643/e643/shared/multi_ellip/studies/two_body_paper_sweeps/runs/ellipsoid_1_0p8_0p6/ellipsoid_1_0p8_0p6_rho0p3_E11_sep5_run01_impulse_noproj/multiple_body_complete.dat
  Bodies:            2
  Fluid density:     1
  Mesh:              ndiv 2 -> 256 triangles / 516 nodes
  Simulated time:    0 -> 100  (dt = 0.05, ~2000 steps)
  Output cadence:    every 1 step(s)
  Output rows:       ~2001
  Progress cadence:  every 100 step(s)
  CPU cores:         256 available, 8 Rayon worker thread(s)
  Strong coupling:   disabled
  Impulse scheme:    enabled
  Hamiltonian step:  disabled
  Hamiltonian midpt: disabled
  Variational step:  disabled
  Energy projection: disabled
  Projection particular metric: Euclidean
  Fluid KE gradient: disabled  (eps = 0.001, scale = 1, linear = 1, angular = 1)
  Fluid KE discrete gradient: disabled
  Impulse pair metric correction: disabled  (mode = pair discrete-gradient, cutoff = all pairs, inner/outer = 0/0, eps = 0.001, linear scale = 1, angular scale = 0)
  Impulse metric correction: disabled  (internal load constraint = disabled)
  Impulse variational defect probe: disabled
  Impulse quadratic pressure: disabled  (scale = 1)
  Added-mass stab:   disabled
  Exact BEM geometry: disabled
  Exact singular BEM: disabled
  Legacy singular SLP diagnostic: disabled
  Phi-dot blend:     0 (off)

  Solver guidance:
    - Strong coupling: use for stiff close-coupled runs; slower but more implicit.
    - Impulse scheme: use when impulse/momentum conservation or KE drift is the focus. Recommended.
    - Added-mass stab: use for higher mesh counts (ndiv > 3) to preserve stability - deprecated.
================================================
Solver starting - good luck!

Initial state:
  Body  1
    density:          0.300000
    shape axes ratio: (1.000000, 0.800000, 0.600000)
    initial KE ratio: 11.000000
    position:         (-2.500000, 0.000000, 0.000000)
    velocity:         (-0.751721, 0.531108, -0.878750)
    angular velocity: (3.529147, 2.785495, -4.389140)
    orientation:      (w=0.447214, i=0.894427, j=0.000000, k=0.000000)
  Body  2
    density:          0.300000
    shape axes ratio: (1.000000, 0.800000, 0.600000)
    initial KE ratio: 11.000000
    position:         (2.500000, 0.000000, 0.000000)
    velocity:         (-0.668949, 0.472628, -0.781991)
    angular velocity: (-5.477985, -2.866335, -1.119920)
    orientation:      (w=0.707107, i=0.000000, j=0.707107, k=0.000000)

Preparing first step: implicit scheme, no bootstrap passes required.
First step may take longer than later steps.

First step completed in 0.410 s.

Step   100/2000    5.0% | t 5.000 | ETA 6m 26s | step 0.19s | KE 33.8417 | drift -3.63% | fluid 7.8586 | solid 25.9831
  Impulse FP iterations last/mean/max 14/14.68/16
Step   200/2000   10.0% | t 10.000 | ETA 6m 5s | step 0.18s | KE 31.5870 | drift -10.05% | fluid 7.8976 | solid 23.6894
  Impulse FP iterations last/mean/max 14/14.69/16
Step   300/2000   15.0% | t 15.000 | ETA 5m 45s | step 0.22s | KE 29.6590 | drift -15.54% | fluid 10.8274 | solid 18.8316
  Impulse FP iterations last/mean/max 15/14.67/16
Step   400/2000   20.0% | t 20.000 | ETA 5m 22s | step 0.18s | KE 29.0437 | drift -17.29% | fluid 8.8710 | solid 20.1727
  Impulse FP iterations last/mean/max 14/14.56/16
Step   500/2000   25.0% | t 25.000 | ETA 4m 58s | step 0.18s | KE 28.7902 | drift -18.01% | fluid 10.2373 | solid 18.5528
  Impulse FP iterations last/mean/max 14/14.46/16
Step   600/2000   30.0% | t 30.000 | ETA 4m 33s | step 0.18s | KE 28.7057 | drift -18.25% | fluid 8.6543 | solid 20.0514
  Impulse FP iterations last/mean/max 14/14.37/16
Step   700/2000   35.0% | t 35.000 | ETA 4m 10s | step 0.19s | KE 28.6751 | drift -18.34% | fluid 8.6793 | solid 19.9957
  Impulse FP iterations last/mean/max 14/14.27/16
Step   800/2000   40.0% | t 40.000 | ETA 3m 49s | step 0.18s | KE 28.6734 | drift -18.34% | fluid 7.0356 | solid 21.6378
  Impulse FP iterations last/mean/max 14/14.22/16
Step   900/2000   45.0% | t 45.000 | ETA 3m 30s | step 0.18s | KE 28.6856 | drift -18.31% | fluid 7.7286 | solid 20.9569
  Impulse FP iterations last/mean/max 13/14.19/16
Step  1000/2000   50.0% | t 50.000 | ETA 3m 11s | step 0.20s | KE 28.6748 | drift -18.34% | fluid 7.8581 | solid 20.8167
  Impulse FP iterations last/mean/max 14/14.17/16
Step  1100/2000   55.0% | t 55.000 | ETA 2m 52s | step 0.21s | KE 28.6701 | drift -18.35% | fluid 6.8678 | solid 21.8023
  Impulse FP iterations last/mean/max 14/14.15/16
Step  1200/2000   60.0% | t 60.000 | ETA 2m 33s | step 0.19s | KE 28.6691 | drift -18.36% | fluid 7.5528 | solid 21.1162
  Impulse FP iterations last/mean/max 14/14.12/16
Step  1300/2000   65.0% | t 65.000 | ETA 2m 13s | step 0.20s | KE 28.6802 | drift -18.32% | fluid 7.1234 | solid 21.5567
  Impulse FP iterations last/mean/max 14/14.10/16
Step  1400/2000   70.0% | t 70.000 | ETA 1m 54s | step 0.19s | KE 28.6853 | drift -18.31% | fluid 9.1157 | solid 19.5696
  Impulse FP iterations last/mean/max 14/14.07/16
Step  1500/2000   75.0% | t 75.000 | ETA 1m 35s | step 0.18s | KE 28.6776 | drift -18.33% | fluid 6.3223 | solid 22.3553
  Impulse FP iterations last/mean/max 13/14.07/16
Step  1600/2000   80.0% | t 80.000 | ETA 1m 16s | step 0.18s | KE 28.6668 | drift -18.36% | fluid 8.4208 | solid 20.2461
  Impulse FP iterations last/mean/max 14/14.05/16
Step  1700/2000   85.0% | t 85.000 | ETA 57s | step 0.18s | KE 28.6825 | drift -18.32% | fluid 8.0938 | solid 20.5887
  Impulse FP iterations last/mean/max 14/14.03/16
Step  1800/2000   90.0% | t 90.000 | ETA 38s | step 0.19s | KE 28.6813 | drift -18.32% | fluid 8.4498 | solid 20.2315
  Impulse FP iterations last/mean/max 14/14.01/16
Step  1900/2000   95.0% | t 95.000 | ETA 19s | step 0.19s | KE 28.6903 | drift -18.30% | fluid 7.1722 | solid 21.5181
  Impulse FP iterations last/mean/max 13/14.00/16
Solver finished successfully - good job!
Results saved successfully.

================== Run summary ==================
  Bodies:            2
  Triangles / nodes: 256 / 516
  Timesteps:         2000  (dt = 0.05)
  Simulated time:    0 -> 100
  First-step setup:  0.410 s
  Mean time/step:    0.1898 s  (excl. first step)
  Total wall time:   6m 19s
  Impulse FP iters last/mean/max: 14 / 13.986 / 16
  Approx impulse solves/step:     13.987
  Impulse start cache hits/direct: 1999 / 1
  Impulse global drift P/H:       3.488941e-8 / 1.270537e-2
  Impulse per-body max drift P/H: 3.859968e-8 / 8.997551e-3
  CPU cores:         256 available, 8 Rayon worker thread(s)
  Started:           2026-06-22 19:47:30
  Finished:          2026-06-22 19:53:50
  Output file:       /work/e643/e643/shared/multi_ellip/studies/two_body_paper_sweeps/runs/ellipsoid_1_0p8_0p6/ellipsoid_1_0p8_0p6_rho0p3_E11_sep5_run01_impulse_noproj/multiple_body_complete.dat
================================================
