
================ Simulation setup ================
  Run label:         /work/e643/e643/shared/multi_ellip/studies/two_body_paper_sweeps/runs/spheroid_1_0p7_0p7/spheroid_1_0p7_0p7_rho1_E11_sep5_run02_impulse_noproj/
  Started:           2026-06-22 19:39:26
  Input file:        /work/e643/e643/shared/multi_ellip/studies/two_body_paper_sweeps/runs/spheroid_1_0p7_0p7/spheroid_1_0p7_0p7_rho1_E11_sep5_run02_impulse_noproj/input.txt
  Output file:       /work/e643/e643/shared/multi_ellip/studies/two_body_paper_sweeps/runs/spheroid_1_0p7_0p7/spheroid_1_0p7_0p7_rho1_E11_sep5_run02_impulse_noproj/multiple_body_complete.dat
  Bodies:            2
  Fluid density:     1
  Mesh:              ndiv 2 -> 256 triangles / 516 nodes
  Simulated time:    0 -> 100  (dt = 0.05, ~2000 steps)
  Output cadence:    every 1 step(s)
  Output rows:       ~2001
  Progress cadence:  every 100 step(s)
  CPU cores:         256 available, 8 Rayon worker thread(s)
  Strong coupling:   disabled
  Impulse scheme:    enabled
  Hamiltonian step:  disabled
  Hamiltonian midpt: disabled
  Variational step:  disabled
  Energy projection: disabled
  Projection particular metric: Euclidean
  Fluid KE gradient: disabled  (eps = 0.001, scale = 1, linear = 1, angular = 1)
  Fluid KE discrete gradient: disabled
  Impulse pair metric correction: disabled  (mode = pair discrete-gradient, cutoff = all pairs, inner/outer = 0/0, eps = 0.001, linear scale = 1, angular scale = 0)
  Impulse metric correction: disabled  (internal load constraint = disabled)
  Impulse variational defect probe: disabled
  Impulse quadratic pressure: disabled  (scale = 1)
  Added-mass stab:   disabled
  Exact BEM geometry: disabled
  Exact singular BEM: disabled
  Legacy singular SLP diagnostic: disabled
  Phi-dot blend:     0 (off)

  Solver guidance:
    - Strong coupling: use for stiff close-coupled runs; slower but more implicit.
    - Impulse scheme: use when impulse/momentum conservation or KE drift is the focus. Recommended.
    - Added-mass stab: use for higher mesh counts (ndiv > 3) to preserve stability - deprecated.
================================================
Solver starting - good luck!

Initial state:
  Body  1
    density:          1.000000
    shape axes ratio: (1.000000, 0.700000, 0.700000)
    initial KE ratio: 11.000000
    position:         (-2.500000, 0.000000, 0.000000)
    velocity:         (0.978116, -0.437737, -0.004775)
    angular velocity: (-6.194141, -0.036050, -1.053439)
    orientation:      (w=0.577350, i=0.577350, j=0.577350, k=0.000000)
  Body  2
    density:          1.000000
    shape axes ratio: (1.000000, 0.700000, 0.700000)
    initial KE ratio: 11.000000
    position:         (2.500000, 0.000000, 0.000000)
    velocity:         (0.987667, -0.442012, -0.004821)
    angular velocity: (-6.070987, -1.047981, 1.234209)
    orientation:      (w=0.577350, i=-0.577350, j=0.000000, k=0.577350)

Preparing first step: implicit scheme, no bootstrap passes required.
First step may take longer than later steps.

First step completed in 0.238 s.

Step   100/2000    5.0% | t 5.000 | ETA 4m 5s | step 0.14s | KE 87.3086 | drift -0.40% | fluid 8.2909 | solid 79.0177
  Impulse FP iterations last/mean/max 10/9.24/10
Step   200/2000   10.0% | t 10.000 | ETA 3m 56s | step 0.13s | KE 86.8691 | drift -0.90% | fluid 8.4483 | solid 78.4209
  Impulse FP iterations last/mean/max 9/9.21/10
Step   300/2000   15.0% | t 15.000 | ETA 3m 43s | step 0.13s | KE 86.4321 | drift -1.40% | fluid 8.2165 | solid 78.2157
  Impulse FP iterations last/mean/max 9/9.21/10
Step   400/2000   20.0% | t 20.000 | ETA 3m 29s | step 0.12s | KE 85.9632 | drift -1.93% | fluid 8.4184 | solid 77.5449
  Impulse FP iterations last/mean/max 9/9.20/10
Step   500/2000   25.0% | t 25.000 | ETA 3m 12s | step 0.12s | KE 85.5339 | drift -2.42% | fluid 8.2126 | solid 77.3214
  Impulse FP iterations last/mean/max 9/9.19/10
Step   600/2000   30.0% | t 30.000 | ETA 2m 58s | step 0.12s | KE 85.1114 | drift -2.90% | fluid 8.3270 | solid 76.7844
  Impulse FP iterations last/mean/max 9/9.17/10
Step   700/2000   35.0% | t 35.000 | ETA 2m 44s | step 0.12s | KE 84.7684 | drift -3.29% | fluid 8.1635 | solid 76.6049
  Impulse FP iterations last/mean/max 9/9.15/10
Step   800/2000   40.0% | t 40.000 | ETA 2m 32s | step 0.12s | KE 84.4762 | drift -3.63% | fluid 8.3227 | solid 76.1535
  Impulse FP iterations last/mean/max 9/9.14/10
Step   900/2000   45.0% | t 45.000 | ETA 2m 19s | step 0.12s | KE 84.2463 | drift -3.89% | fluid 8.3175 | solid 75.9288
  Impulse FP iterations last/mean/max 9/9.13/10
Step  1000/2000   50.0% | t 50.000 | ETA 2m 7s | step 0.13s | KE 84.1095 | drift -4.05% | fluid 8.2429 | solid 75.8667
  Impulse FP iterations last/mean/max 9/9.12/10
Step  1100/2000   55.0% | t 55.000 | ETA 1m 54s | step 0.12s | KE 84.0191 | drift -4.15% | fluid 8.3467 | solid 75.6724
  Impulse FP iterations last/mean/max 9/9.11/10
Step  1200/2000   60.0% | t 60.000 | ETA 1m 41s | step 0.13s | KE 83.9976 | drift -4.17% | fluid 8.1033 | solid 75.8943
  Impulse FP iterations last/mean/max 9/9.10/10
Step  1300/2000   65.0% | t 65.000 | ETA 1m 29s | step 0.13s | KE 84.0197 | drift -4.15% | fluid 8.2690 | solid 75.7508
  Impulse FP iterations last/mean/max 9/9.09/10
Step  1400/2000   70.0% | t 70.000 | ETA 1m 16s | step 0.12s | KE 84.0594 | drift -4.10% | fluid 8.2035 | solid 75.8559
  Impulse FP iterations last/mean/max 9/9.09/10
Step  1500/2000   75.0% | t 75.000 | ETA 1m 3s | step 0.13s | KE 84.1300 | drift -4.02% | fluid 8.3545 | solid 75.7755
  Impulse FP iterations last/mean/max 9/9.08/10
Step  1600/2000   80.0% | t 80.000 | ETA 50s | step 0.11s | KE 84.2081 | drift -3.93% | fluid 8.3156 | solid 75.8924
  Impulse FP iterations last/mean/max 9/9.07/10
Step  1700/2000   85.0% | t 85.000 | ETA 38s | step 0.13s | KE 84.2778 | drift -3.85% | fluid 8.3101 | solid 75.9677
  Impulse FP iterations last/mean/max 9/9.07/10
Step  1800/2000   90.0% | t 90.000 | ETA 25s | step 0.14s | KE 84.3517 | drift -3.77% | fluid 8.3141 | solid 76.0377
  Impulse FP iterations last/mean/max 9/9.06/10
Step  1900/2000   95.0% | t 95.000 | ETA 12s | step 0.14s | KE 84.4067 | drift -3.71% | fluid 8.1552 | solid 76.2515
  Impulse FP iterations last/mean/max 9/9.06/10
Solver finished successfully - good job!
Results saved successfully.

================== Run summary ==================
  Bodies:            2
  Triangles / nodes: 256 / 516
  Timesteps:         2000  (dt = 0.05)
  Simulated time:    0 -> 100
  First-step setup:  0.238 s
  Mean time/step:    0.1271 s  (excl. first step)
  Total wall time:   4m 14s
  Impulse FP iters last/mean/max: 9 / 9.057 / 10
  Approx impulse solves/step:     9.058
  Impulse start cache hits/direct: 1999 / 1
  Impulse global drift P/H:       3.019841e-8 / 8.364229e-3
  Impulse per-body max drift P/H: 4.511691e-8 / 9.025245e-3
  CPU cores:         256 available, 8 Rayon worker thread(s)
  Started:           2026-06-22 19:39:26
  Finished:          2026-06-22 19:43:40
  Output file:       /work/e643/e643/shared/multi_ellip/studies/two_body_paper_sweeps/runs/spheroid_1_0p7_0p7/spheroid_1_0p7_0p7_rho1_E11_sep5_run02_impulse_noproj/multiple_body_complete.dat
================================================
