
================ Simulation setup ================
  Run label:         /work/e643/e643/shared/multi_ellip/studies/multibody_convergence_sweep/runs/stress_temporal_spheroid_1_0p7_0p7_rho1_E0p25_sep8_nd2_dt0p05/
  Started:           2026-06-22 20:55:40
  Input file:        /work/e643/e643/shared/multi_ellip/studies/multibody_convergence_sweep/runs/stress_temporal_spheroid_1_0p7_0p7_rho1_E0p25_sep8_nd2_dt0p05/input.txt
  Output file:       /work/e643/e643/shared/multi_ellip/studies/multibody_convergence_sweep/runs/stress_temporal_spheroid_1_0p7_0p7_rho1_E0p25_sep8_nd2_dt0p05/multiple_body_complete.dat
  Bodies:            2
  Fluid density:     1
  Mesh:              ndiv 2 -> 256 triangles / 516 nodes
  Simulated time:    0 -> 10  (dt = 0.05, ~200 steps)
  Output cadence:    every 1 step(s)
  Output rows:       ~201
  Progress cadence:  every 20 step(s)
  CPU cores:         256 available, 16 Rayon worker thread(s)
  Strong coupling:   disabled
  Impulse scheme:    enabled
  Hamiltonian step:  disabled
  Hamiltonian midpt: disabled
  Variational step:  disabled
  Energy projection: disabled
  Projection particular metric: Euclidean
  Fluid KE gradient: disabled  (eps = 0.001, scale = 1, linear = 1, angular = 1)
  Fluid KE discrete gradient: disabled
  Impulse pair metric correction: disabled  (mode = pair discrete-gradient, cutoff = all pairs, inner/outer = 0/0, eps = 0.001, linear scale = 1, angular scale = 0)
  Impulse metric correction: disabled  (internal load constraint = disabled)
  Impulse variational defect probe: disabled
  Impulse quadratic pressure: disabled  (scale = 1)
  Added-mass stab:   disabled
  Exact BEM geometry: disabled
  Exact singular BEM: disabled
  Legacy singular SLP diagnostic: disabled
  Phi-dot blend:     0 (off)

  Solver guidance:
    - Strong coupling: use for stiff close-coupled runs; slower but more implicit.
    - Impulse scheme: use when impulse/momentum conservation or KE drift is the focus. Recommended.
    - Added-mass stab: use for higher mesh counts (ndiv > 3) to preserve stability - deprecated.
================================================
Solver starting - good luck!

Initial state:
  Body  1
    density:          1.000000
    shape axes ratio: (1.000000, 0.700000, 0.700000)
    initial KE ratio: 0.250000
    position:         (-4.000000, 0.000000, 0.000000)
    velocity:         (6.190898, 4.501474, 4.134658)
    angular velocity: (-0.204228, -4.389865, 4.490634)
    orientation:      (w=0.447214, i=0.894427, j=0.000000, k=0.000000)
  Body  2
    density:          1.000000
    shape axes ratio: (1.000000, 0.700000, 0.700000)
    initial KE ratio: 0.250000
    position:         (4.000000, 0.000000, 0.000000)
    velocity:         (5.827018, 4.236893, 3.891637)
    angular velocity: (3.632757, 1.680118, -4.843418)
    orientation:      (w=0.707107, i=0.000000, j=0.707107, k=0.000000)

Preparing first step: implicit scheme, no bootstrap passes required.
First step may take longer than later steps.

First step completed in 0.229 s.

Step    20/200    10.0% | t 1.000 | ETA 18s | step 0.10s | KE 536.7233 | drift -0.31% | fluid 170.2453 | solid 366.4780
  Impulse FP iterations last/mean/max 11/10.10/11
Step    40/200    20.0% | t 2.000 | ETA 16s | step 0.11s | KE 533.2219 | drift -0.96% | fluid 160.1592 | solid 373.0626
  Impulse FP iterations last/mean/max 10/10.12/11
Step    60/200    30.0% | t 3.000 | ETA 14s | step 0.09s | KE 531.2308 | drift -1.33% | fluid 171.0045 | solid 360.2263
  Impulse FP iterations last/mean/max 10/10.12/11
Step    80/200    40.0% | t 4.000 | ETA 12s | step 0.10s | KE 532.9046 | drift -1.02% | fluid 152.2202 | solid 380.6844
  Impulse FP iterations last/mean/max 10/10.10/11
Step   100/200    50.0% | t 5.000 | ETA 9s | step 0.09s | KE 532.3646 | drift -1.12% | fluid 164.7719 | solid 367.5928
  Impulse FP iterations last/mean/max 10/10.09/11
Step   120/200    60.0% | t 6.000 | ETA 7s | step 0.09s | KE 533.3508 | drift -0.94% | fluid 150.1668 | solid 383.1840
  Impulse FP iterations last/mean/max 10/10.09/11
Step   140/200    70.0% | t 7.000 | ETA 5s | step 0.09s | KE 532.4803 | drift -1.10% | fluid 168.5662 | solid 363.9141
  Impulse FP iterations last/mean/max 10/10.09/11
Step   160/200    80.0% | t 8.000 | ETA 3s | step 0.09s | KE 533.2852 | drift -0.95% | fluid 156.9080 | solid 376.3772
  Impulse FP iterations last/mean/max 10/10.10/11
Step   180/200    90.0% | t 9.000 | ETA 1s | step 0.08s | KE 532.2048 | drift -1.15% | fluid 178.4013 | solid 353.8035
  Impulse FP iterations last/mean/max 10/10.12/11
Solver finished successfully - good job!
Results saved successfully.

================== Run summary ==================
  Bodies:            2
  Triangles / nodes: 256 / 516
  Timesteps:         200  (dt = 0.05)
  Simulated time:    0 -> 10
  First-step setup:  0.229 s
  Mean time/step:    0.0918 s  (excl. first step)
  Total wall time:   18.49s
  Impulse FP iters last/mean/max: 10 / 10.110 / 11
  Approx impulse solves/step:     10.115
  Impulse start cache hits/direct: 199 / 1
  Impulse global drift P/H:       1.906803e-9 / 7.494701e-3
  Impulse per-body max drift P/H: 2.611275e-9 / 1.400695e-3
  CPU cores:         256 available, 16 Rayon worker thread(s)
  Started:           2026-06-22 20:55:40
  Finished:          2026-06-22 20:55:59
  Output file:       /work/e643/e643/shared/multi_ellip/studies/multibody_convergence_sweep/runs/stress_temporal_spheroid_1_0p7_0p7_rho1_E0p25_sep8_nd2_dt0p05/multiple_body_complete.dat
================================================
