
================ Simulation setup ================
  Run label:         /work/e643/e643/shared/multi_ellip/studies/two_body_paper_sweeps/runs/ellipsoid_1_0p8_0p6/ellipsoid_1_0p8_0p6_rho1_E1p5_sep11_run02_impulse_noproj/
  Started:           2026-06-22 19:34:43
  Input file:        /work/e643/e643/shared/multi_ellip/studies/two_body_paper_sweeps/runs/ellipsoid_1_0p8_0p6/ellipsoid_1_0p8_0p6_rho1_E1p5_sep11_run02_impulse_noproj/input.txt
  Output file:       /work/e643/e643/shared/multi_ellip/studies/two_body_paper_sweeps/runs/ellipsoid_1_0p8_0p6/ellipsoid_1_0p8_0p6_rho1_E1p5_sep11_run02_impulse_noproj/multiple_body_complete.dat
  Bodies:            2
  Fluid density:     1
  Mesh:              ndiv 2 -> 256 triangles / 516 nodes
  Simulated time:    0 -> 100  (dt = 0.05, ~2000 steps)
  Output cadence:    every 1 step(s)
  Output rows:       ~2001
  Progress cadence:  every 100 step(s)
  CPU cores:         256 available, 8 Rayon worker thread(s)
  Strong coupling:   disabled
  Impulse scheme:    enabled
  Hamiltonian step:  disabled
  Hamiltonian midpt: disabled
  Variational step:  disabled
  Energy projection: disabled
  Projection particular metric: Euclidean
  Fluid KE gradient: disabled  (eps = 0.001, scale = 1, linear = 1, angular = 1)
  Fluid KE discrete gradient: disabled
  Impulse pair metric correction: disabled  (mode = pair discrete-gradient, cutoff = all pairs, inner/outer = 0/0, eps = 0.001, linear scale = 1, angular scale = 0)
  Impulse metric correction: disabled  (internal load constraint = disabled)
  Impulse variational defect probe: disabled
  Impulse quadratic pressure: disabled  (scale = 1)
  Added-mass stab:   disabled
  Exact BEM geometry: disabled
  Exact singular BEM: disabled
  Legacy singular SLP diagnostic: disabled
  Phi-dot blend:     0 (off)

  Solver guidance:
    - Strong coupling: use for stiff close-coupled runs; slower but more implicit.
    - Impulse scheme: use when impulse/momentum conservation or KE drift is the focus. Recommended.
    - Added-mass stab: use for higher mesh counts (ndiv > 3) to preserve stability - deprecated.
================================================
Solver starting - good luck!

Initial state:
  Body  1
    density:          1.000000
    shape axes ratio: (1.000000, 0.800000, 0.600000)
    initial KE ratio: 1.500000
    position:         (-5.500000, 0.000000, 0.000000)
    velocity:         (0.657439, 2.214115, 2.217160)
    angular velocity: (-4.799096, 3.204359, -2.485795)
    orientation:      (w=0.577350, i=0.577350, j=0.577350, k=0.000000)
  Body  2
    density:          1.000000
    shape axes ratio: (1.000000, 0.800000, 0.600000)
    initial KE ratio: 1.500000
    position:         (5.500000, 0.000000, 0.000000)
    velocity:         (0.731378, 2.463123, 2.466511)
    angular velocity: (0.762495, 4.646857, -4.159776)
    orientation:      (w=0.577350, i=-0.577350, j=0.000000, k=0.577350)

Preparing first step: implicit scheme, no bootstrap passes required.
First step may take longer than later steps.

First step completed in 0.335 s.

Step   100/2000    5.0% | t 5.000 | ETA 4m 48s | step 0.15s | KE 150.7016 | drift +0.39% | fluid 33.4149 | solid 117.2867
  Impulse FP iterations last/mean/max 11/11.07/12
Step   200/2000   10.0% | t 10.000 | ETA 4m 22s | step 0.14s | KE 151.2350 | drift +0.75% | fluid 32.7488 | solid 118.4862
  Impulse FP iterations last/mean/max 12/11.15/12
Step   300/2000   15.0% | t 15.000 | ETA 4m 2s | step 0.14s | KE 151.5347 | drift +0.95% | fluid 33.8124 | solid 117.7222
  Impulse FP iterations last/mean/max 11/11.16/12
Step   400/2000   20.0% | t 20.000 | ETA 3m 47s | step 0.14s | KE 151.8509 | drift +1.16% | fluid 30.7804 | solid 121.0705
  Impulse FP iterations last/mean/max 11/11.18/12
Step   500/2000   25.0% | t 25.000 | ETA 3m 36s | step 0.15s | KE 151.7313 | drift +1.08% | fluid 32.0058 | solid 119.7255
  Impulse FP iterations last/mean/max 11/11.16/12
Step   600/2000   30.0% | t 30.000 | ETA 3m 24s | step 0.14s | KE 151.9556 | drift +1.23% | fluid 30.9741 | solid 120.9815
  Impulse FP iterations last/mean/max 11/11.18/12
Step   700/2000   35.0% | t 35.000 | ETA 3m 10s | step 0.15s | KE 152.3089 | drift +1.46% | fluid 34.0885 | solid 118.2204
  Impulse FP iterations last/mean/max 11/11.17/12
Step   800/2000   40.0% | t 40.000 | ETA 2m 57s | step 0.16s | KE 153.3674 | drift +2.17% | fluid 33.3150 | solid 120.0525
  Impulse FP iterations last/mean/max 11/11.16/12
Step   900/2000   45.0% | t 45.000 | ETA 2m 43s | step 0.17s | KE 154.5810 | drift +2.98% | fluid 33.4363 | solid 121.1447
  Impulse FP iterations last/mean/max 12/11.17/12
Step  1000/2000   50.0% | t 50.000 | ETA 2m 28s | step 0.15s | KE 155.6894 | drift +3.72% | fluid 35.5306 | solid 120.1588
  Impulse FP iterations last/mean/max 11/11.17/12
Step  1100/2000   55.0% | t 55.000 | ETA 2m 14s | step 0.14s | KE 156.5337 | drift +4.28% | fluid 37.3208 | solid 119.2129
  Impulse FP iterations last/mean/max 11/11.16/12
Step  1200/2000   60.0% | t 60.000 | ETA 1m 59s | step 0.16s | KE 156.9379 | drift +4.55% | fluid 37.0883 | solid 119.8496
  Impulse FP iterations last/mean/max 11/11.16/12
Step  1300/2000   65.0% | t 65.000 | ETA 1m 45s | step 0.18s | KE 157.0505 | drift +4.62% | fluid 33.9990 | solid 123.0515
  Impulse FP iterations last/mean/max 12/11.18/12
Step  1400/2000   70.0% | t 70.000 | ETA 1m 30s | step 0.14s | KE 157.2258 | drift +4.74% | fluid 30.6743 | solid 126.5515
  Impulse FP iterations last/mean/max 11/11.18/12
Step  1500/2000   75.0% | t 75.000 | ETA 1m 15s | step 0.16s | KE 157.7935 | drift +5.12% | fluid 30.0550 | solid 127.7385
  Impulse FP iterations last/mean/max 11/11.16/12
Step  1600/2000   80.0% | t 80.000 | ETA 1m 0s | step 0.15s | KE 158.5902 | drift +5.65% | fluid 35.2962 | solid 123.2940
  Impulse FP iterations last/mean/max 11/11.17/12
Step  1700/2000   85.0% | t 85.000 | ETA 45s | step 0.17s | KE 160.1669 | drift +6.70% | fluid 36.5483 | solid 123.6186
  Impulse FP iterations last/mean/max 12/11.18/12
Step  1800/2000   90.0% | t 90.000 | ETA 30s | step 0.16s | KE 161.2309 | drift +7.41% | fluid 38.2518 | solid 122.9792
  Impulse FP iterations last/mean/max 12/11.18/12
Step  1900/2000   95.0% | t 95.000 | ETA 15s | step 0.14s | KE 162.7552 | drift +8.42% | fluid 30.3749 | solid 132.3802
  Impulse FP iterations last/mean/max 11/11.18/12
Solver finished successfully - good job!
Results saved successfully.

================== Run summary ==================
  Bodies:            2
  Triangles / nodes: 256 / 516
  Timesteps:         2000  (dt = 0.05)
  Simulated time:    0 -> 100
  First-step setup:  0.335 s
  Mean time/step:    0.1511 s  (excl. first step)
  Total wall time:   5m 2s
  Impulse FP iters last/mean/max: 11 / 11.184 / 12
  Approx impulse solves/step:     11.184
  Impulse start cache hits/direct: 1999 / 1
  Impulse global drift P/H:       5.137186e-9 / 2.926944e-2
  Impulse per-body max drift P/H: 7.696897e-9 / 2.565499e-3
  CPU cores:         256 available, 8 Rayon worker thread(s)
  Started:           2026-06-22 19:34:43
  Finished:          2026-06-22 19:39:45
  Output file:       /work/e643/e643/shared/multi_ellip/studies/two_body_paper_sweeps/runs/ellipsoid_1_0p8_0p6/ellipsoid_1_0p8_0p6_rho1_E1p5_sep11_run02_impulse_noproj/multiple_body_complete.dat
================================================
