
================ Simulation setup ================
  Run label:         /work/e643/e643/shared/multi_ellip/studies/two_body_paper_sweeps/runs/ellipsoid_1_0p8_0p6/ellipsoid_1_0p8_0p6_rho4_E11_sep11_run02_impulse_noproj/
  Started:           2026-06-22 19:30:42
  Input file:        /work/e643/e643/shared/multi_ellip/studies/two_body_paper_sweeps/runs/ellipsoid_1_0p8_0p6/ellipsoid_1_0p8_0p6_rho4_E11_sep11_run02_impulse_noproj/input.txt
  Output file:       /work/e643/e643/shared/multi_ellip/studies/two_body_paper_sweeps/runs/ellipsoid_1_0p8_0p6/ellipsoid_1_0p8_0p6_rho4_E11_sep11_run02_impulse_noproj/multiple_body_complete.dat
  Bodies:            2
  Fluid density:     1
  Mesh:              ndiv 2 -> 256 triangles / 516 nodes
  Simulated time:    0 -> 100  (dt = 0.05, ~2000 steps)
  Output cadence:    every 1 step(s)
  Output rows:       ~2001
  Progress cadence:  every 100 step(s)
  CPU cores:         256 available, 8 Rayon worker thread(s)
  Strong coupling:   disabled
  Impulse scheme:    enabled
  Hamiltonian step:  disabled
  Hamiltonian midpt: disabled
  Variational step:  disabled
  Energy projection: disabled
  Projection particular metric: Euclidean
  Fluid KE gradient: disabled  (eps = 0.001, scale = 1, linear = 1, angular = 1)
  Fluid KE discrete gradient: disabled
  Impulse pair metric correction: disabled  (mode = pair discrete-gradient, cutoff = all pairs, inner/outer = 0/0, eps = 0.001, linear scale = 1, angular scale = 0)
  Impulse metric correction: disabled  (internal load constraint = disabled)
  Impulse variational defect probe: disabled
  Impulse quadratic pressure: disabled  (scale = 1)
  Added-mass stab:   disabled
  Exact BEM geometry: disabled
  Exact singular BEM: disabled
  Legacy singular SLP diagnostic: disabled
  Phi-dot blend:     0 (off)

  Solver guidance:
    - Strong coupling: use for stiff close-coupled runs; slower but more implicit.
    - Impulse scheme: use when impulse/momentum conservation or KE drift is the focus. Recommended.
    - Added-mass stab: use for higher mesh counts (ndiv > 3) to preserve stability - deprecated.
================================================
Solver starting - good luck!

Initial state:
  Body  1
    density:          4.000000
    shape axes ratio: (1.000000, 0.800000, 0.600000)
    initial KE ratio: 11.000000
    position:         (-5.500000, 0.000000, 0.000000)
    velocity:         (0.175558, 0.714620, -1.032680)
    angular velocity: (3.918347, 1.584349, -4.649173)
    orientation:      (w=0.577350, i=0.577350, j=0.577350, k=0.000000)
  Body  2
    density:          4.000000
    shape axes ratio: (1.000000, 0.800000, 0.600000)
    initial KE ratio: 11.000000
    position:         (5.500000, 0.000000, 0.000000)
    velocity:         (0.168602, 0.686304, -0.991762)
    angular velocity: (-3.481170, 4.994432, 1.554195)
    orientation:      (w=0.577350, i=-0.577350, j=0.000000, k=0.577350)

Preparing first step: implicit scheme, no bootstrap passes required.
First step may take longer than later steps.

First step completed in 0.280 s.

Step   100/2000    5.0% | t 5.000 | ETA 3m 34s | step 0.10s | KE 330.5778 | drift -0.01% | fluid 7.2428 | solid 323.3350
  Impulse FP iterations last/mean/max 8/8.36/9
Step   200/2000   10.0% | t 10.000 | ETA 3m 23s | step 0.11s | KE 330.5611 | drift -0.01% | fluid 6.9827 | solid 323.5783
  Impulse FP iterations last/mean/max 8/8.35/9
Step   300/2000   15.0% | t 15.000 | ETA 3m 13s | step 0.12s | KE 330.5445 | drift -0.02% | fluid 5.6197 | solid 324.9248
  Impulse FP iterations last/mean/max 9/8.39/9
Step   400/2000   20.0% | t 20.000 | ETA 3m 2s | step 0.12s | KE 330.5295 | drift -0.02% | fluid 7.7099 | solid 322.8195
  Impulse FP iterations last/mean/max 8/8.39/9
Step   500/2000   25.0% | t 25.000 | ETA 2m 50s | step 0.10s | KE 330.5115 | drift -0.03% | fluid 7.1728 | solid 323.3386
  Impulse FP iterations last/mean/max 8/8.37/9
Step   600/2000   30.0% | t 30.000 | ETA 2m 38s | step 0.12s | KE 330.5097 | drift -0.03% | fluid 6.1648 | solid 324.3449
  Impulse FP iterations last/mean/max 9/8.37/9
Step   700/2000   35.0% | t 35.000 | ETA 2m 27s | step 0.12s | KE 330.4897 | drift -0.03% | fluid 8.5095 | solid 321.9802
  Impulse FP iterations last/mean/max 9/8.37/9
Step   800/2000   40.0% | t 40.000 | ETA 2m 16s | step 0.11s | KE 330.4896 | drift -0.03% | fluid 7.1087 | solid 323.3809
  Impulse FP iterations last/mean/max 8/8.37/9
Step   900/2000   45.0% | t 45.000 | ETA 2m 4s | step 0.12s | KE 330.4896 | drift -0.03% | fluid 6.8847 | solid 323.6049
  Impulse FP iterations last/mean/max 9/8.37/9
Step  1000/2000   50.0% | t 50.000 | ETA 1m 53s | step 0.11s | KE 330.4744 | drift -0.04% | fluid 8.7947 | solid 321.6797
  Impulse FP iterations last/mean/max 9/8.37/9
Step  1100/2000   55.0% | t 55.000 | ETA 1m 41s | step 0.10s | KE 330.4935 | drift -0.03% | fluid 6.7431 | solid 323.7505
  Impulse FP iterations last/mean/max 8/8.38/9
Step  1200/2000   60.0% | t 60.000 | ETA 1m 30s | step 0.11s | KE 330.4808 | drift -0.04% | fluid 7.3623 | solid 323.1185
  Impulse FP iterations last/mean/max 9/8.38/9
Step  1300/2000   65.0% | t 65.000 | ETA 1m 18s | step 0.12s | KE 330.4816 | drift -0.04% | fluid 8.5481 | solid 321.9335
  Impulse FP iterations last/mean/max 9/8.38/9
Step  1400/2000   70.0% | t 70.000 | ETA 1m 7s | step 0.10s | KE 330.4990 | drift -0.03% | fluid 6.2758 | solid 324.2232
  Impulse FP iterations last/mean/max 8/8.38/9
Step  1500/2000   75.0% | t 75.000 | ETA 56s | step 0.13s | KE 330.4740 | drift -0.04% | fluid 7.7508 | solid 322.7232
  Impulse FP iterations last/mean/max 9/8.38/9
Step  1600/2000   80.0% | t 80.000 | ETA 45s | step 0.12s | KE 330.4917 | drift -0.03% | fluid 7.9935 | solid 322.4983
  Impulse FP iterations last/mean/max 8/8.38/9
Step  1700/2000   85.0% | t 85.000 | ETA 33s | step 0.11s | KE 330.4833 | drift -0.04% | fluid 6.3683 | solid 324.1151
  Impulse FP iterations last/mean/max 8/8.38/9
Step  1800/2000   90.0% | t 90.000 | ETA 22s | step 0.12s | KE 330.4714 | drift -0.04% | fluid 7.9167 | solid 322.5546
  Impulse FP iterations last/mean/max 9/8.38/9
Step  1900/2000   95.0% | t 95.000 | ETA 11s | step 0.11s | KE 330.4849 | drift -0.04% | fluid 7.8696 | solid 322.6153
  Impulse FP iterations last/mean/max 8/8.38/9
Solver finished successfully - good job!
Results saved successfully.

================== Run summary ==================
  Bodies:            2
  Triangles / nodes: 256 / 516
  Timesteps:         2000  (dt = 0.05)
  Simulated time:    0 -> 100
  First-step setup:  0.280 s
  Mean time/step:    0.1131 s  (excl. first step)
  Total wall time:   3m 46s
  Impulse FP iters last/mean/max: 8 / 8.379 / 9
  Approx impulse solves/step:     8.380
  Impulse start cache hits/direct: 1999 / 1
  Impulse global drift P/H:       1.932524e-8 / 1.864125e-2
  Impulse per-body max drift P/H: 4.478087e-8 / 3.675580e-3
  CPU cores:         256 available, 8 Rayon worker thread(s)
  Started:           2026-06-22 19:30:42
  Finished:          2026-06-22 19:34:29
  Output file:       /work/e643/e643/shared/multi_ellip/studies/two_body_paper_sweeps/runs/ellipsoid_1_0p8_0p6/ellipsoid_1_0p8_0p6_rho4_E11_sep11_run02_impulse_noproj/multiple_body_complete.dat
================================================
