
================ Simulation setup ================
  Run label:         /work/e643/e643/shared/multi_ellip/studies/departing_sphericity_sweep/runs/spheroid_oblate/homogeneous/spheroid_oblate_homogeneous_eps0p3_rho1_E0p5_sep8_run03_impulse_noproj/
  Started:           2026-06-24 02:30:08
  Input file:        /work/e643/e643/shared/multi_ellip/studies/departing_sphericity_sweep/runs/spheroid_oblate/homogeneous/spheroid_oblate_homogeneous_eps0p3_rho1_E0p5_sep8_run03_impulse_noproj/input.txt
  Output file:       /work/e643/e643/shared/multi_ellip/studies/departing_sphericity_sweep/runs/spheroid_oblate/homogeneous/spheroid_oblate_homogeneous_eps0p3_rho1_E0p5_sep8_run03_impulse_noproj/multiple_body_complete.dat
  Bodies:            2
  Fluid density:     1
  Mesh:              ndiv 2 -> 256 triangles / 516 nodes
  Simulated time:    0 -> 100  (dt = 0.05, ~2000 steps)
  Output cadence:    every 1 step(s)
  Output rows:       ~2001
  Progress cadence:  every 100 step(s)
  CPU cores:         256 available, 8 Rayon worker thread(s)
  Strong coupling:   disabled
  Impulse scheme:    enabled
  Hamiltonian step:  disabled
  Hamiltonian midpt: disabled
  Variational step:  disabled
  Energy projection: disabled
  Projection particular metric: Euclidean
  Fluid KE gradient: disabled  (eps = 0.001, scale = 1, linear = 1, angular = 1)
  Fluid KE discrete gradient: disabled
  Impulse pair metric correction: disabled  (mode = pair discrete-gradient, cutoff = all pairs, inner/outer = 0/0, eps = 0.001, linear scale = 1, angular scale = 0)
  Impulse metric correction: disabled  (internal load constraint = disabled)
  Impulse variational defect probe: disabled
  Impulse quadratic pressure: disabled  (scale = 1)
  Added-mass stab:   disabled
  Exact BEM geometry: disabled
  Exact singular BEM: disabled
  Legacy singular SLP diagnostic: disabled
  Phi-dot blend:     0 (off)

  Solver guidance:
    - Strong coupling: use for stiff close-coupled runs; slower but more implicit.
    - Impulse scheme: use when impulse/momentum conservation or KE drift is the focus. Recommended.
    - Added-mass stab: use for higher mesh counts (ndiv > 3) to preserve stability - deprecated.
================================================
Solver starting - good luck!

Initial state:
  Body  1
    density:          1.000000
    shape axes ratio: (1.000000, 1.000000, 0.455166)
    initial KE ratio: 0.500000
    position:         (-4.000000, 0.000000, 0.000000)
    velocity:         (-3.585706, 4.823680, 2.957472)
    angular velocity: (-3.624650, 1.651434, 4.859331)
    orientation:      (w=0.324936, i=-0.167544, j=0.921666, k=-0.129910)
  Body  2
    density:          1.000000
    shape axes ratio: (1.000000, 1.000000, 0.455166)
    initial KE ratio: 0.500000
    position:         (4.000000, 0.000000, 0.000000)
    velocity:         (-3.521788, 4.737695, 2.904753)
    angular velocity: (-4.246843, -0.887651, 4.544757)
    orientation:      (w=0.646247, i=0.692919, j=-0.084451, k=-0.308378)

Preparing first step: implicit scheme, no bootstrap passes required.
First step may take longer than later steps.

First step completed in 0.319 s.

Step   100/2000    5.0% | t 5.000 | ETA 6m 0s | step 0.20s | KE 418.4845 | drift +0.40% | fluid 162.4269 | solid 256.0577
  Impulse FP iterations last/mean/max 14/13.83/15
Step   200/2000   10.0% | t 10.000 | ETA 5m 42s | step 0.20s | KE 419.0574 | drift +0.54% | fluid 151.3620 | solid 267.6954
  Impulse FP iterations last/mean/max 14/13.82/15
Step   300/2000   15.0% | t 15.000 | ETA 5m 23s | step 0.21s | KE 420.1215 | drift +0.79% | fluid 146.2457 | solid 273.8758
  Impulse FP iterations last/mean/max 15/13.82/15
Step   400/2000   20.0% | t 20.000 | ETA 5m 4s | step 0.18s | KE 420.3321 | drift +0.84% | fluid 136.3144 | solid 284.0178
  Impulse FP iterations last/mean/max 14/13.82/15
Step   500/2000   25.0% | t 25.000 | ETA 4m 45s | step 0.18s | KE 420.1721 | drift +0.80% | fluid 133.9997 | solid 286.1724
  Impulse FP iterations last/mean/max 13/13.82/15
Step   600/2000   30.0% | t 30.000 | ETA 4m 26s | step 0.20s | KE 419.6656 | drift +0.68% | fluid 147.9832 | solid 271.6825
  Impulse FP iterations last/mean/max 14/13.83/15
Step   700/2000   35.0% | t 35.000 | ETA 4m 7s | step 0.20s | KE 419.0494 | drift +0.53% | fluid 148.7495 | solid 270.2998
  Impulse FP iterations last/mean/max 14/13.83/15
Step   800/2000   40.0% | t 40.000 | ETA 3m 47s | step 0.20s | KE 419.5283 | drift +0.65% | fluid 155.4815 | solid 264.0468
  Impulse FP iterations last/mean/max 15/13.84/15
Step   900/2000   45.0% | t 45.000 | ETA 3m 29s | step 0.18s | KE 419.9185 | drift +0.74% | fluid 142.5730 | solid 277.3456
  Impulse FP iterations last/mean/max 13/13.83/15
Step  1000/2000   50.0% | t 50.000 | ETA 3m 10s | step 0.18s | KE 420.3317 | drift +0.84% | fluid 135.4737 | solid 284.8580
  Impulse FP iterations last/mean/max 13/13.84/15
Step  1100/2000   55.0% | t 55.000 | ETA 2m 51s | step 0.18s | KE 420.4028 | drift +0.86% | fluid 137.4827 | solid 282.9200
  Impulse FP iterations last/mean/max 13/13.83/16
Step  1200/2000   60.0% | t 60.000 | ETA 2m 31s | step 0.16s | KE 419.2875 | drift +0.59% | fluid 143.4053 | solid 275.8822
  Impulse FP iterations last/mean/max 13/13.83/16
Step  1300/2000   65.0% | t 65.000 | ETA 2m 11s | step 0.16s | KE 418.5733 | drift +0.42% | fluid 162.8716 | solid 255.7017
  Impulse FP iterations last/mean/max 13/13.84/16
Step  1400/2000   70.0% | t 70.000 | ETA 1m 51s | step 0.15s | KE 419.5481 | drift +0.65% | fluid 146.8450 | solid 272.7031
  Impulse FP iterations last/mean/max 14/13.84/16
Step  1500/2000   75.0% | t 75.000 | ETA 1m 31s | step 0.15s | KE 420.3031 | drift +0.84% | fluid 139.6054 | solid 280.6976
  Impulse FP iterations last/mean/max 15/13.84/16
Step  1600/2000   80.0% | t 80.000 | ETA 1m 11s | step 0.13s | KE 420.5273 | drift +0.89% | fluid 135.3172 | solid 285.2101
  Impulse FP iterations last/mean/max 13/13.84/16
Step  1700/2000   85.0% | t 85.000 | ETA 53s | step 0.13s | KE 419.6635 | drift +0.68% | fluid 138.8228 | solid 280.8407
  Impulse FP iterations last/mean/max 13/13.84/16
Step  1800/2000   90.0% | t 90.000 | ETA 34s | step 0.13s | KE 418.2423 | drift +0.34% | fluid 162.1853 | solid 256.0571
  Impulse FP iterations last/mean/max 14/13.84/16
Step  1900/2000   95.0% | t 95.000 | ETA 17s | step 0.13s | KE 419.3074 | drift +0.60% | fluid 147.5948 | solid 271.7126
  Impulse FP iterations last/mean/max 14/13.84/16
Solver finished successfully - good job!
Results saved successfully.

================== Run summary ==================
  Bodies:            2
  Triangles / nodes: 256 / 516
  Timesteps:         2000  (dt = 0.05)
  Simulated time:    0 -> 100
  First-step setup:  0.319 s
  Mean time/step:    0.1702 s  (excl. first step)
  Total wall time:   5m 40s
  Impulse FP iters last/mean/max: 14 / 13.839 / 16
  Approx impulse solves/step:     13.840
  Impulse start cache hits/direct: 1999 / 1
  Impulse global drift P/H:       3.836727e-9 / 4.696425e-3
  Impulse per-body max drift P/H: 1.016260e-8 / 1.514742e-3
  CPU cores:         256 available, 8 Rayon worker thread(s)
  Started:           2026-06-24 02:30:08
  Finished:          2026-06-24 02:35:49
  Output file:       /work/e643/e643/shared/multi_ellip/studies/departing_sphericity_sweep/runs/spheroid_oblate/homogeneous/spheroid_oblate_homogeneous_eps0p3_rho1_E0p5_sep8_run03_impulse_noproj/multiple_body_complete.dat
================================================
