
================ Simulation setup ================
  Run label:         /work/e643/e643/shared/multi_ellip/studies/departing_sphericity_sweep/runs/triaxial/heterogeneous_sphere/triaxial_heterogeneous_sphere_eps0p003_rho1_E0p5_sep8_run05_impulse_noproj/
  Started:           2026-06-24 02:43:21
  Input file:        /work/e643/e643/shared/multi_ellip/studies/departing_sphericity_sweep/runs/triaxial/heterogeneous_sphere/triaxial_heterogeneous_sphere_eps0p003_rho1_E0p5_sep8_run05_impulse_noproj/input.txt
  Output file:       /work/e643/e643/shared/multi_ellip/studies/departing_sphericity_sweep/runs/triaxial/heterogeneous_sphere/triaxial_heterogeneous_sphere_eps0p003_rho1_E0p5_sep8_run05_impulse_noproj/multiple_body_complete.dat
  Bodies:            2
  Fluid density:     1
  Mesh:              ndiv 2 -> 256 triangles / 516 nodes
  Simulated time:    0 -> 100  (dt = 0.05, ~2000 steps)
  Output cadence:    every 1 step(s)
  Output rows:       ~2001
  Progress cadence:  every 100 step(s)
  CPU cores:         256 available, 8 Rayon worker thread(s)
  Strong coupling:   disabled
  Impulse scheme:    enabled
  Hamiltonian step:  disabled
  Hamiltonian midpt: disabled
  Variational step:  disabled
  Energy projection: disabled
  Projection particular metric: Euclidean
  Fluid KE gradient: disabled  (eps = 0.001, scale = 1, linear = 1, angular = 1)
  Fluid KE discrete gradient: disabled
  Impulse pair metric correction: disabled  (mode = pair discrete-gradient, cutoff = all pairs, inner/outer = 0/0, eps = 0.001, linear scale = 1, angular scale = 0)
  Impulse metric correction: disabled  (internal load constraint = disabled)
  Impulse variational defect probe: disabled
  Impulse quadratic pressure: disabled  (scale = 1)
  Added-mass stab:   disabled
  Exact BEM geometry: disabled
  Exact singular BEM: disabled
  Legacy singular SLP diagnostic: disabled
  Phi-dot blend:     0 (off)

  Solver guidance:
    - Strong coupling: use for stiff close-coupled runs; slower but more implicit.
    - Impulse scheme: use when impulse/momentum conservation or KE drift is the focus. Recommended.
    - Added-mass stab: use for higher mesh counts (ndiv > 3) to preserve stability - deprecated.
================================================
Solver starting - good luck!

Initial state:
  Body  1
    density:          1.000000
    shape axes ratio: (1.000000, 0.997009, 0.994027)
    initial KE ratio: 0.500000
    position:         (-4.000000, 0.000000, 0.000000)
    velocity:         (4.406681, 3.393433, -0.803675)
    angular velocity: (-3.905923, 3.194693, -3.743811)
    orientation:      (w=-0.168972, i=-0.395396, j=0.517177, k=-0.740026)
  Body  2
    density:          1.000000
    shape axes ratio: (1.000000, 1.000000, 1.000000)
    initial KE ratio: 0.500000
    position:         (4.000000, 0.000000, 0.000000)
    velocity:         (4.406864, 3.393573, -0.803708)
    angular velocity: (-0.693921, 5.744924, 2.448007)
    orientation:      (w=0.172608, i=0.928388, j=-0.329018, k=0.007076)

Preparing first step: implicit scheme, no bootstrap passes required.
First step may take longer than later steps.

First step completed in 0.296 s.

Step   100/2000    5.0% | t 5.000 | ETA 3m 30s | step 0.11s | KE 270.8467 | drift +0.08% | fluid 72.1531 | solid 198.6936
  Impulse FP iterations last/mean/max 8/7.86/8
Step   200/2000   10.0% | t 10.000 | ETA 3m 19s | step 0.10s | KE 274.0418 | drift +1.27% | fluid 72.1143 | solid 201.9275
  Impulse FP iterations last/mean/max 7/7.84/8
Step   300/2000   15.0% | t 15.000 | ETA 3m 7s | step 0.12s | KE 280.1468 | drift +3.52% | fluid 72.0940 | solid 208.0528
  Impulse FP iterations last/mean/max 8/7.83/8
Step   400/2000   20.0% | t 20.000 | ETA 2m 56s | step 0.11s | KE 289.1111 | drift +6.83% | fluid 72.1370 | solid 216.9741
  Impulse FP iterations last/mean/max 8/7.83/8
Step   500/2000   25.0% | t 25.000 | ETA 2m 45s | step 0.12s | KE 300.9059 | drift +11.19% | fluid 72.1638 | solid 228.7421
  Impulse FP iterations last/mean/max 8/7.82/8
Step   600/2000   30.0% | t 30.000 | ETA 2m 32s | step 0.10s | KE 315.5077 | drift +16.59% | fluid 72.1092 | solid 243.3985
  Impulse FP iterations last/mean/max 8/7.82/8
Step   700/2000   35.0% | t 35.000 | ETA 2m 20s | step 0.09s | KE 332.8374 | drift +22.99% | fluid 72.1087 | solid 260.7288
  Impulse FP iterations last/mean/max 7/7.81/8
Step   800/2000   40.0% | t 40.000 | ETA 2m 9s | step 0.10s | KE 352.8596 | drift +30.39% | fluid 72.1182 | solid 280.7414
  Impulse FP iterations last/mean/max 7/7.80/8
Step   900/2000   45.0% | t 45.000 | ETA 1m 59s | step 0.09s | KE 375.5447 | drift +38.77% | fluid 72.1005 | solid 303.4442
  Impulse FP iterations last/mean/max 7/7.79/8
Step  1000/2000   50.0% | t 50.000 | ETA 1m 48s | step 0.11s | KE 400.7910 | drift +48.10% | fluid 72.1722 | solid 328.6188
  Impulse FP iterations last/mean/max 8/7.79/8
Step  1100/2000   55.0% | t 55.000 | ETA 1m 37s | step 0.11s | KE 428.6465 | drift +58.40% | fluid 72.1452 | solid 356.5014
  Impulse FP iterations last/mean/max 8/7.78/8
Step  1200/2000   60.0% | t 60.000 | ETA 1m 27s | step 0.12s | KE 458.9989 | drift +69.61% | fluid 72.1462 | solid 386.8527
  Impulse FP iterations last/mean/max 8/7.78/8
Step  1300/2000   65.0% | t 65.000 | ETA 1m 16s | step 0.11s | KE 491.8231 | drift +81.74% | fluid 72.1488 | solid 419.6743
  Impulse FP iterations last/mean/max 8/7.78/8
Step  1400/2000   70.0% | t 70.000 | ETA 1m 5s | step 0.12s | KE 527.0792 | drift +94.77% | fluid 72.1372 | solid 454.9420
  Impulse FP iterations last/mean/max 8/7.80/8
Step  1500/2000   75.0% | t 75.000 | ETA 54s | step 0.09s | KE 564.7159 | drift +108.68% | fluid 72.1308 | solid 492.5851
  Impulse FP iterations last/mean/max 7/7.81/8
Step  1600/2000   80.0% | t 80.000 | ETA 43s | step 0.12s | KE 604.6502 | drift +123.43% | fluid 72.1576 | solid 532.4926
  Impulse FP iterations last/mean/max 8/7.81/8
Step  1700/2000   85.0% | t 85.000 | ETA 32s | step 0.10s | KE 646.9505 | drift +139.06% | fluid 72.1134 | solid 574.8371
  Impulse FP iterations last/mean/max 7/7.81/8
Step  1800/2000   90.0% | t 90.000 | ETA 21s | step 0.12s | KE 691.4349 | drift +155.50% | fluid 72.1224 | solid 619.3124
  Impulse FP iterations last/mean/max 8/7.79/8
Step  1900/2000   95.0% | t 95.000 | ETA 10s | step 0.08s | KE 738.1551 | drift +172.77% | fluid 72.1050 | solid 666.0501
  Impulse FP iterations last/mean/max 7/7.77/8
Solver finished successfully - good job!
Results saved successfully.

================== Run summary ==================
  Bodies:            2
  Triangles / nodes: 256 / 516
  Timesteps:         2000  (dt = 0.05)
  Simulated time:    0 -> 100
  First-step setup:  0.296 s
  Mean time/step:    0.1066 s  (excl. first step)
  Total wall time:   3m 33s
  Impulse FP iters last/mean/max: 7 / 7.750 / 8
  Approx impulse solves/step:     7.750
  Impulse start cache hits/direct: 1999 / 1
  Impulse global drift P/H:       1.866755e-8 / 5.373369e-2
  Impulse per-body max drift P/H: 3.094207e-8 / 6.426320e-3
  CPU cores:         256 available, 8 Rayon worker thread(s)
  Started:           2026-06-24 02:43:21
  Finished:          2026-06-24 02:46:55
  Output file:       /work/e643/e643/shared/multi_ellip/studies/departing_sphericity_sweep/runs/triaxial/heterogeneous_sphere/triaxial_heterogeneous_sphere_eps0p003_rho1_E0p5_sep8_run05_impulse_noproj/multiple_body_complete.dat
================================================
