
================ Simulation setup ================
  Run label:         /work/e643/e643/shared/multi_ellip/studies/two_body_paper_sweeps/runs/ellipsoid_1_0p8_0p6/ellipsoid_1_0p8_0p6_rho0p1_E30_sep5_run01_impulse_noproj/
  Started:           2026-06-22 20:03:25
  Input file:        /work/e643/e643/shared/multi_ellip/studies/two_body_paper_sweeps/runs/ellipsoid_1_0p8_0p6/ellipsoid_1_0p8_0p6_rho0p1_E30_sep5_run01_impulse_noproj/input.txt
  Output file:       /work/e643/e643/shared/multi_ellip/studies/two_body_paper_sweeps/runs/ellipsoid_1_0p8_0p6/ellipsoid_1_0p8_0p6_rho0p1_E30_sep5_run01_impulse_noproj/multiple_body_complete.dat
  Bodies:            2
  Fluid density:     1
  Mesh:              ndiv 2 -> 256 triangles / 516 nodes
  Simulated time:    0 -> 100  (dt = 0.05, ~2000 steps)
  Output cadence:    every 1 step(s)
  Output rows:       ~2001
  Progress cadence:  every 100 step(s)
  CPU cores:         256 available, 8 Rayon worker thread(s)
  Strong coupling:   disabled
  Impulse scheme:    enabled
  Hamiltonian step:  disabled
  Hamiltonian midpt: disabled
  Variational step:  disabled
  Energy projection: disabled
  Projection particular metric: Euclidean
  Fluid KE gradient: disabled  (eps = 0.001, scale = 1, linear = 1, angular = 1)
  Fluid KE discrete gradient: disabled
  Impulse pair metric correction: disabled  (mode = pair discrete-gradient, cutoff = all pairs, inner/outer = 0/0, eps = 0.001, linear scale = 1, angular scale = 0)
  Impulse metric correction: disabled  (internal load constraint = disabled)
  Impulse variational defect probe: disabled
  Impulse quadratic pressure: disabled  (scale = 1)
  Added-mass stab:   disabled
  Exact BEM geometry: disabled
  Exact singular BEM: disabled
  Legacy singular SLP diagnostic: disabled
  Phi-dot blend:     0 (off)

  Solver guidance:
    - Strong coupling: use for stiff close-coupled runs; slower but more implicit.
    - Impulse scheme: use when impulse/momentum conservation or KE drift is the focus. Recommended.
    - Added-mass stab: use for higher mesh counts (ndiv > 3) to preserve stability - deprecated.
================================================
Solver starting - good luck!

Initial state:
  Body  1
    density:          0.100000
    shape axes ratio: (1.000000, 0.800000, 0.600000)
    initial KE ratio: 30.000000
    position:         (-2.500000, 0.000000, 0.000000)
    velocity:         (-0.238767, -0.493416, -0.598540)
    angular velocity: (-2.208470, -1.935729, 5.554641)
    orientation:      (w=0.447214, i=0.894427, j=0.000000, k=0.000000)
  Body  2
    density:          0.100000
    shape axes ratio: (1.000000, 0.800000, 0.600000)
    initial KE ratio: 30.000000
    position:         (2.500000, 0.000000, 0.000000)
    velocity:         (-0.223681, -0.462240, -0.560722)
    angular velocity: (-2.909380, 4.692777, -2.998627)
    orientation:      (w=0.707107, i=0.000000, j=0.707107, k=0.000000)

Preparing first step: implicit scheme, no bootstrap passes required.
First step may take longer than later steps.

First step completed in 0.369 s.

Step   100/2000    5.0% | t 5.000 | ETA 8m 11s | step 0.23s | KE 18.9629 | drift -1.20% | fluid 10.8312 | solid 8.1317
  Impulse FP iterations last/mean/max 19/19.76/22
Step   200/2000   10.0% | t 10.000 | ETA 7m 41s | step 0.27s | KE 18.8934 | drift -1.56% | fluid 11.5614 | solid 7.3320
  Impulse FP iterations last/mean/max 20/19.63/22
Step   300/2000   15.0% | t 15.000 | ETA 7m 11s | step 0.26s | KE 18.7972 | drift -2.06% | fluid 11.6445 | solid 7.1527
  Impulse FP iterations last/mean/max 20/19.62/22
Step   400/2000   20.0% | t 20.000 | ETA 6m 42s | step 0.23s | KE 18.7136 | drift -2.50% | fluid 10.3187 | solid 8.3948
  Impulse FP iterations last/mean/max 18/19.57/22
Step   500/2000   25.0% | t 25.000 | ETA 6m 13s | step 0.22s | KE 18.7567 | drift -2.27% | fluid 11.0607 | solid 7.6960
  Impulse FP iterations last/mean/max 19/19.51/22
Step   600/2000   30.0% | t 30.000 | ETA 5m 46s | step 0.22s | KE 18.7175 | drift -2.48% | fluid 11.1852 | solid 7.5323
  Impulse FP iterations last/mean/max 18/19.55/22
Step   700/2000   35.0% | t 35.000 | ETA 5m 19s | step 0.25s | KE 18.6947 | drift -2.59% | fluid 10.4575 | solid 8.2372
  Impulse FP iterations last/mean/max 19/19.54/22
Step   800/2000   40.0% | t 40.000 | ETA 4m 53s | step 0.21s | KE 18.7264 | drift -2.43% | fluid 10.7202 | solid 8.0062
  Impulse FP iterations last/mean/max 18/19.51/23
Step   900/2000   45.0% | t 45.000 | ETA 4m 27s | step 0.21s | KE 18.6962 | drift -2.59% | fluid 10.9345 | solid 7.7617
  Impulse FP iterations last/mean/max 20/19.53/23
Step  1000/2000   50.0% | t 50.000 | ETA 4m 1s | step 0.26s | KE 18.7050 | drift -2.54% | fluid 10.6711 | solid 8.0339
  Impulse FP iterations last/mean/max 19/19.52/23
Step  1100/2000   55.0% | t 55.000 | ETA 3m 36s | step 0.21s | KE 18.7000 | drift -2.57% | fluid 10.3592 | solid 8.3407
  Impulse FP iterations last/mean/max 19/19.50/23
Step  1200/2000   60.0% | t 60.000 | ETA 3m 12s | step 0.23s | KE 18.6979 | drift -2.58% | fluid 10.9674 | solid 7.7306
  Impulse FP iterations last/mean/max 20/19.51/23
Step  1300/2000   65.0% | t 65.000 | ETA 2m 47s | step 0.22s | KE 18.7166 | drift -2.48% | fluid 10.8451 | solid 7.8715
  Impulse FP iterations last/mean/max 20/19.49/23
Step  1400/2000   70.0% | t 70.000 | ETA 2m 23s | step 0.24s | KE 18.6701 | drift -2.72% | fluid 9.9988 | solid 8.6713
  Impulse FP iterations last/mean/max 20/19.46/23
Step  1500/2000   75.0% | t 75.000 | ETA 1m 59s | step 0.26s | KE 18.7166 | drift -2.48% | fluid 11.1637 | solid 7.5529
  Impulse FP iterations last/mean/max 21/19.47/23
Step  1600/2000   80.0% | t 80.000 | ETA 1m 35s | step 0.25s | KE 18.7227 | drift -2.45% | fluid 10.9716 | solid 7.7511
  Impulse FP iterations last/mean/max 19/19.47/23
Step  1700/2000   85.0% | t 85.000 | ETA 1m 11s | step 0.24s | KE 18.6460 | drift -2.85% | fluid 9.7653 | solid 8.8807
  Impulse FP iterations last/mean/max 20/19.45/23
Step  1800/2000   90.0% | t 90.000 | ETA 47s | step 0.23s | KE 18.7372 | drift -2.37% | fluid 11.3608 | solid 7.3763
  Impulse FP iterations last/mean/max 18/19.43/23
Step  1900/2000   95.0% | t 95.000 | ETA 23s | step 0.22s | KE 18.7204 | drift -2.46% | fluid 11.0396 | solid 7.6809
  Impulse FP iterations last/mean/max 20/19.44/23
Solver finished successfully - good job!
Results saved successfully.

================== Run summary ==================
  Bodies:            2
  Triangles / nodes: 256 / 516
  Timesteps:         2000  (dt = 0.05)
  Simulated time:    0 -> 100
  First-step setup:  0.369 s
  Mean time/step:    0.2349 s  (excl. first step)
  Total wall time:   7m 49s
  Impulse FP iters last/mean/max: 20 / 19.429 / 23
  Approx impulse solves/step:     19.429
  Impulse start cache hits/direct: 1999 / 1
  Impulse global drift P/H:       8.956474e-8 / 9.989001e-3
  Impulse per-body max drift P/H: 1.128424e-7 / 4.599562e-3
  CPU cores:         256 available, 8 Rayon worker thread(s)
  Started:           2026-06-22 20:03:25
  Finished:          2026-06-22 20:11:15
  Output file:       /work/e643/e643/shared/multi_ellip/studies/two_body_paper_sweeps/runs/ellipsoid_1_0p8_0p6/ellipsoid_1_0p8_0p6_rho0p1_E30_sep5_run01_impulse_noproj/multiple_body_complete.dat
================================================
