
================ Simulation setup ================
  Run label:         /work/e643/e643/shared/multi_ellip/studies/departing_sphericity_sweep/runs/spheroid_prolate/homogeneous/spheroid_prolate_homogeneous_eps0p0003_rho1_E0p5_sep8_run01_impulse_noproj/
  Started:           2026-06-24 02:23:10
  Input file:        /work/e643/e643/shared/multi_ellip/studies/departing_sphericity_sweep/runs/spheroid_prolate/homogeneous/spheroid_prolate_homogeneous_eps0p0003_rho1_E0p5_sep8_run01_impulse_noproj/input.txt
  Output file:       /work/e643/e643/shared/multi_ellip/studies/departing_sphericity_sweep/runs/spheroid_prolate/homogeneous/spheroid_prolate_homogeneous_eps0p0003_rho1_E0p5_sep8_run01_impulse_noproj/multiple_body_complete.dat
  Bodies:            2
  Fluid density:     1
  Mesh:              ndiv 2 -> 256 triangles / 516 nodes
  Simulated time:    0 -> 100  (dt = 0.05, ~2000 steps)
  Output cadence:    every 1 step(s)
  Output rows:       ~2001
  Progress cadence:  every 100 step(s)
  CPU cores:         256 available, 8 Rayon worker thread(s)
  Strong coupling:   disabled
  Impulse scheme:    enabled
  Hamiltonian step:  disabled
  Hamiltonian midpt: disabled
  Variational step:  disabled
  Energy projection: disabled
  Projection particular metric: Euclidean
  Fluid KE gradient: disabled  (eps = 0.001, scale = 1, linear = 1, angular = 1)
  Fluid KE discrete gradient: disabled
  Impulse pair metric correction: disabled  (mode = pair discrete-gradient, cutoff = all pairs, inner/outer = 0/0, eps = 0.001, linear scale = 1, angular scale = 0)
  Impulse metric correction: disabled  (internal load constraint = disabled)
  Impulse variational defect probe: disabled
  Impulse quadratic pressure: disabled  (scale = 1)
  Added-mass stab:   disabled
  Exact BEM geometry: disabled
  Exact singular BEM: disabled
  Legacy singular SLP diagnostic: disabled
  Phi-dot blend:     0 (off)

  Solver guidance:
    - Strong coupling: use for stiff close-coupled runs; slower but more implicit.
    - Impulse scheme: use when impulse/momentum conservation or KE drift is the focus. Recommended.
    - Added-mass stab: use for higher mesh counts (ndiv > 3) to preserve stability - deprecated.
================================================
Solver starting - good luck!

Initial state:
  Body  1
    density:          1.000000
    shape axes ratio: (1.000000, 0.999101, 0.999101)
    initial KE ratio: 0.500000
    position:         (-4.000000, 0.000000, 0.000000)
    velocity:         (0.263658, -4.945179, -2.653711)
    angular velocity: (-5.977372, -0.643779, 1.826195)
    orientation:      (w=-0.074557, i=-0.498973, j=-0.480187, k=0.717557)
  Body  2
    density:          1.000000
    shape axes ratio: (1.000000, 0.999101, 0.999101)
    initial KE ratio: 0.500000
    position:         (4.000000, 0.000000, 0.000000)
    velocity:         (0.263714, -4.946230, -2.654275)
    angular velocity: (-4.134446, 4.556938, 1.272436)
    orientation:      (w=-0.097244, i=-0.853253, j=0.480221, k=-0.178582)

Preparing first step: implicit scheme, no bootstrap passes required.
First step may take longer than later steps.

First step completed in 9.285 s.

Step   100/2000    5.0% | t 5.000 | ETA 3m 0s | step 0.10s | KE 271.1669 | drift +0.06% | fluid 72.6113 | solid 198.5556
  Impulse FP iterations last/mean/max 7/6.76/7
Step   200/2000   10.0% | t 10.000 | ETA 2m 49s | step 0.08s | KE 271.3595 | drift +0.13% | fluid 72.6088 | solid 198.7507
  Impulse FP iterations last/mean/max 6/6.72/7
Step   300/2000   15.0% | t 15.000 | ETA 2m 39s | step 0.08s | KE 271.5905 | drift +0.21% | fluid 72.6025 | solid 198.9880
  Impulse FP iterations last/mean/max 6/6.73/7
Step   400/2000   20.0% | t 20.000 | ETA 2m 30s | step 0.09s | KE 271.8601 | drift +0.31% | fluid 72.5926 | solid 199.2675
  Impulse FP iterations last/mean/max 6/6.75/7
Step   500/2000   25.0% | t 25.000 | ETA 2m 21s | step 0.09s | KE 272.1677 | drift +0.43% | fluid 72.5887 | solid 199.5790
  Impulse FP iterations last/mean/max 6/6.76/7
Step   600/2000   30.0% | t 30.000 | ETA 2m 11s | step 0.10s | KE 272.5126 | drift +0.55% | fluid 72.5981 | solid 199.9145
  Impulse FP iterations last/mean/max 7/6.75/7
Step   700/2000   35.0% | t 35.000 | ETA 2m 3s | step 0.10s | KE 272.8983 | drift +0.70% | fluid 72.5953 | solid 200.3030
  Impulse FP iterations last/mean/max 7/6.77/7
Step   800/2000   40.0% | t 40.000 | ETA 1m 53s | step 0.08s | KE 273.3249 | drift +0.85% | fluid 72.5837 | solid 200.7412
  Impulse FP iterations last/mean/max 6/6.76/7
Step   900/2000   45.0% | t 45.000 | ETA 1m 43s | step 0.10s | KE 273.7877 | drift +1.02% | fluid 72.6010 | solid 201.1867
  Impulse FP iterations last/mean/max 7/6.76/7
Step  1000/2000   50.0% | t 50.000 | ETA 1m 34s | step 0.09s | KE 274.2946 | drift +1.21% | fluid 72.5871 | solid 201.7075
  Impulse FP iterations last/mean/max 6/6.75/7
Step  1100/2000   55.0% | t 55.000 | ETA 1m 25s | step 0.10s | KE 274.8377 | drift +1.41% | fluid 72.6039 | solid 202.2338
  Impulse FP iterations last/mean/max 7/6.76/7
Step  1200/2000   60.0% | t 60.000 | ETA 1m 15s | step 0.09s | KE 275.4250 | drift +1.63% | fluid 72.5922 | solid 202.8328
  Impulse FP iterations last/mean/max 6/6.76/7
Step  1300/2000   65.0% | t 65.000 | ETA 1m 6s | step 0.08s | KE 276.0512 | drift +1.86% | fluid 72.5941 | solid 203.4571
  Impulse FP iterations last/mean/max 6/6.75/7
Step  1400/2000   70.0% | t 70.000 | ETA 56s | step 0.08s | KE 276.7168 | drift +2.11% | fluid 72.6044 | solid 204.1125
  Impulse FP iterations last/mean/max 6/6.76/7
Step  1500/2000   75.0% | t 75.000 | ETA 47s | step 0.10s | KE 277.4249 | drift +2.37% | fluid 72.6027 | solid 204.8222
  Impulse FP iterations last/mean/max 7/6.76/7
Step  1600/2000   80.0% | t 80.000 | ETA 37s | step 0.09s | KE 278.1746 | drift +2.64% | fluid 72.5964 | solid 205.5781
  Impulse FP iterations last/mean/max 7/6.75/7
Step  1700/2000   85.0% | t 85.000 | ETA 28s | step 0.09s | KE 278.9650 | drift +2.93% | fluid 72.5912 | solid 206.3738
  Impulse FP iterations last/mean/max 7/6.75/7
Step  1800/2000   90.0% | t 90.000 | ETA 18s | step 0.08s | KE 279.7957 | drift +3.24% | fluid 72.5930 | solid 207.2028
  Impulse FP iterations last/mean/max 7/6.75/7
Step  1900/2000   95.0% | t 95.000 | ETA 9s | step 0.07s | KE 280.6668 | drift +3.56% | fluid 72.6010 | solid 208.0658
  Impulse FP iterations last/mean/max 7/6.75/7
Solver finished successfully - good job!
Results saved successfully.

================== Run summary ==================
  Bodies:            2
  Triangles / nodes: 256 / 516
  Timesteps:         2000  (dt = 0.05)
  Simulated time:    0 -> 100
  First-step setup:  9.285 s
  Mean time/step:    0.0908 s  (excl. first step)
  Total wall time:   3m 10s
  Impulse FP iters last/mean/max: 6 / 6.743 / 7
  Approx impulse solves/step:     6.744
  Impulse start cache hits/direct: 1999 / 1
  Impulse global drift P/H:       4.667440e-9 / 5.427706e-3
  Impulse per-body max drift P/H: 6.028870e-9 / 4.743646e-4
  CPU cores:         256 available, 8 Rayon worker thread(s)
  Started:           2026-06-24 02:23:10
  Finished:          2026-06-24 02:26:21
  Output file:       /work/e643/e643/shared/multi_ellip/studies/departing_sphericity_sweep/runs/spheroid_prolate/homogeneous/spheroid_prolate_homogeneous_eps0p0003_rho1_E0p5_sep8_run01_impulse_noproj/multiple_body_complete.dat
================================================
