
================ Simulation setup ================
  Run label:         /work/e643/e643/shared/multi_ellip/studies/departing_sphericity_sweep/runs/spheroid_prolate/homogeneous/spheroid_prolate_homogeneous_eps0p3_rho1_E0p5_sep8_run07_impulse_noproj/
  Started:           2026-06-24 02:30:37
  Input file:        /work/e643/e643/shared/multi_ellip/studies/departing_sphericity_sweep/runs/spheroid_prolate/homogeneous/spheroid_prolate_homogeneous_eps0p3_rho1_E0p5_sep8_run07_impulse_noproj/input.txt
  Output file:       /work/e643/e643/shared/multi_ellip/studies/departing_sphericity_sweep/runs/spheroid_prolate/homogeneous/spheroid_prolate_homogeneous_eps0p3_rho1_E0p5_sep8_run07_impulse_noproj/multiple_body_complete.dat
  Bodies:            2
  Fluid density:     1
  Mesh:              ndiv 2 -> 256 triangles / 516 nodes
  Simulated time:    0 -> 100  (dt = 0.05, ~2000 steps)
  Output cadence:    every 1 step(s)
  Output rows:       ~2001
  Progress cadence:  every 100 step(s)
  CPU cores:         256 available, 8 Rayon worker thread(s)
  Strong coupling:   disabled
  Impulse scheme:    enabled
  Hamiltonian step:  disabled
  Hamiltonian midpt: disabled
  Variational step:  disabled
  Energy projection: disabled
  Projection particular metric: Euclidean
  Fluid KE gradient: disabled  (eps = 0.001, scale = 1, linear = 1, angular = 1)
  Fluid KE discrete gradient: disabled
  Impulse pair metric correction: disabled  (mode = pair discrete-gradient, cutoff = all pairs, inner/outer = 0/0, eps = 0.001, linear scale = 1, angular scale = 0)
  Impulse metric correction: disabled  (internal load constraint = disabled)
  Impulse variational defect probe: disabled
  Impulse quadratic pressure: disabled  (scale = 1)
  Added-mass stab:   disabled
  Exact BEM geometry: disabled
  Exact singular BEM: disabled
  Legacy singular SLP diagnostic: disabled
  Phi-dot blend:     0 (off)

  Solver guidance:
    - Strong coupling: use for stiff close-coupled runs; slower but more implicit.
    - Impulse scheme: use when impulse/momentum conservation or KE drift is the focus. Recommended.
    - Added-mass stab: use for higher mesh counts (ndiv > 3) to preserve stability - deprecated.
================================================
Solver starting - good luck!

Initial state:
  Body  1
    density:          1.000000
    shape axes ratio: (1.000000, 0.455166, 0.455166)
    initial KE ratio: 0.500000
    position:         (-4.000000, 0.000000, 0.000000)
    velocity:         (-1.175093, 0.058412, -7.265114)
    angular velocity: (-0.555587, 6.243776, -0.430112)
    orientation:      (w=0.908680, i=0.029094, j=-0.090418, k=0.406545)
  Body  2
    density:          1.000000
    shape axes ratio: (1.000000, 0.455166, 0.455166)
    initial KE ratio: 0.500000
    position:         (4.000000, 0.000000, 0.000000)
    velocity:         (-1.078394, 0.053605, -6.667260)
    angular velocity: (3.121875, -1.660647, 5.193705)
    orientation:      (w=0.211801, i=-0.878238, j=0.085990, k=-0.420053)

Preparing first step: implicit scheme, no bootstrap passes required.
First step may take longer than later steps.

First step completed in 0.350 s.

Step   100/2000    5.0% | t 5.000 | ETA 5m 5s | step 0.17s | KE 408.1404 | drift +0.17% | fluid 130.4782 | solid 277.6622
  Impulse FP iterations last/mean/max 12/12.24/13
Step   200/2000   10.0% | t 10.000 | ETA 4m 59s | step 0.18s | KE 408.5906 | drift +0.28% | fluid 133.5646 | solid 275.0260
  Impulse FP iterations last/mean/max 13/12.22/13
Step   300/2000   15.0% | t 15.000 | ETA 4m 47s | step 0.16s | KE 408.3809 | drift +0.23% | fluid 140.2099 | solid 268.1710
  Impulse FP iterations last/mean/max 12/12.21/13
Step   400/2000   20.0% | t 20.000 | ETA 4m 32s | step 0.16s | KE 408.6151 | drift +0.29% | fluid 128.1721 | solid 280.4430
  Impulse FP iterations last/mean/max 12/12.22/14
Step   500/2000   25.0% | t 25.000 | ETA 4m 16s | step 0.17s | KE 408.0477 | drift +0.15% | fluid 141.9942 | solid 266.0535
  Impulse FP iterations last/mean/max 12/12.22/14
Step   600/2000   30.0% | t 30.000 | ETA 4m 0s | step 0.18s | KE 408.4812 | drift +0.26% | fluid 126.6846 | solid 281.7966
  Impulse FP iterations last/mean/max 12/12.22/14
Step   700/2000   35.0% | t 35.000 | ETA 3m 44s | step 0.17s | KE 407.8914 | drift +0.11% | fluid 142.6841 | solid 265.2073
  Impulse FP iterations last/mean/max 12/12.23/14
Step   800/2000   40.0% | t 40.000 | ETA 3m 27s | step 0.18s | KE 408.8697 | drift +0.35% | fluid 125.3365 | solid 283.5332
  Impulse FP iterations last/mean/max 12/12.22/14
Step   900/2000   45.0% | t 45.000 | ETA 3m 10s | step 0.18s | KE 408.2179 | drift +0.19% | fluid 148.6956 | solid 259.5223
  Impulse FP iterations last/mean/max 12/12.22/14
Step  1000/2000   50.0% | t 50.000 | ETA 2m 53s | step 0.17s | KE 408.1677 | drift +0.18% | fluid 126.3083 | solid 281.8594
  Impulse FP iterations last/mean/max 12/12.22/14
Step  1100/2000   55.0% | t 55.000 | ETA 2m 36s | step 0.20s | KE 407.7581 | drift +0.08% | fluid 136.9708 | solid 270.7873
  Impulse FP iterations last/mean/max 13/12.23/14
Step  1200/2000   60.0% | t 60.000 | ETA 2m 18s | step 0.17s | KE 408.7986 | drift +0.33% | fluid 132.0612 | solid 276.7374
  Impulse FP iterations last/mean/max 12/12.22/14
Step  1300/2000   65.0% | t 65.000 | ETA 2m 1s | step 0.14s | KE 408.6464 | drift +0.30% | fluid 146.1633 | solid 262.4831
  Impulse FP iterations last/mean/max 12/12.22/14
Step  1400/2000   70.0% | t 70.000 | ETA 1m 43s | step 0.16s | KE 407.9750 | drift +0.13% | fluid 128.8493 | solid 279.1258
  Impulse FP iterations last/mean/max 13/12.23/14
Step  1500/2000   75.0% | t 75.000 | ETA 1m 25s | step 0.15s | KE 407.9527 | drift +0.13% | fluid 125.6478 | solid 282.3049
  Impulse FP iterations last/mean/max 12/12.23/14
Step  1600/2000   80.0% | t 80.000 | ETA 1m 7s | step 0.14s | KE 408.5389 | drift +0.27% | fluid 143.5886 | solid 264.9503
  Impulse FP iterations last/mean/max 12/12.23/14
Step  1700/2000   85.0% | t 85.000 | ETA 50s | step 0.14s | KE 409.1018 | drift +0.41% | fluid 138.3516 | solid 270.7502
  Impulse FP iterations last/mean/max 13/12.23/14
Step  1800/2000   90.0% | t 90.000 | ETA 33s | step 0.15s | KE 407.8641 | drift +0.11% | fluid 133.6744 | solid 274.1897
  Impulse FP iterations last/mean/max 13/12.23/14
Step  1900/2000   95.0% | t 95.000 | ETA 16s | step 0.14s | KE 408.0496 | drift +0.15% | fluid 118.5422 | solid 289.5074
  Impulse FP iterations last/mean/max 13/12.23/14
Solver finished successfully - good job!
Results saved successfully.

================== Run summary ==================
  Bodies:            2
  Triangles / nodes: 256 / 516
  Timesteps:         2000  (dt = 0.05)
  Simulated time:    0 -> 100
  First-step setup:  0.350 s
  Mean time/step:    0.1620 s  (excl. first step)
  Total wall time:   5m 24s
  Impulse FP iters last/mean/max: 11 / 12.223 / 14
  Approx impulse solves/step:     12.224
  Impulse start cache hits/direct: 1999 / 1
  Impulse global drift P/H:       9.777483e-9 / 9.604010e-3
  Impulse per-body max drift P/H: 1.605696e-8 / 2.453170e-3
  CPU cores:         256 available, 8 Rayon worker thread(s)
  Started:           2026-06-24 02:30:37
  Finished:          2026-06-24 02:36:02
  Output file:       /work/e643/e643/shared/multi_ellip/studies/departing_sphericity_sweep/runs/spheroid_prolate/homogeneous/spheroid_prolate_homogeneous_eps0p3_rho1_E0p5_sep8_run07_impulse_noproj/multiple_body_complete.dat
================================================
