
================ Simulation setup ================
  Run label:         /work/e643/e643/shared/multi_ellip/studies/departing_sphericity_sweep/runs/spheroid_prolate/homogeneous/spheroid_prolate_homogeneous_eps0p0001_rho1_E0p5_sep8_run08_impulse_noproj/
  Started:           2026-06-24 02:23:11
  Input file:        /work/e643/e643/shared/multi_ellip/studies/departing_sphericity_sweep/runs/spheroid_prolate/homogeneous/spheroid_prolate_homogeneous_eps0p0001_rho1_E0p5_sep8_run08_impulse_noproj/input.txt
  Output file:       /work/e643/e643/shared/multi_ellip/studies/departing_sphericity_sweep/runs/spheroid_prolate/homogeneous/spheroid_prolate_homogeneous_eps0p0001_rho1_E0p5_sep8_run08_impulse_noproj/multiple_body_complete.dat
  Bodies:            2
  Fluid density:     1
  Mesh:              ndiv 2 -> 256 triangles / 516 nodes
  Simulated time:    0 -> 100  (dt = 0.05, ~2000 steps)
  Output cadence:    every 1 step(s)
  Output rows:       ~2001
  Progress cadence:  every 100 step(s)
  CPU cores:         256 available, 8 Rayon worker thread(s)
  Strong coupling:   disabled
  Impulse scheme:    enabled
  Hamiltonian step:  disabled
  Hamiltonian midpt: disabled
  Variational step:  disabled
  Energy projection: disabled
  Projection particular metric: Euclidean
  Fluid KE gradient: disabled  (eps = 0.001, scale = 1, linear = 1, angular = 1)
  Fluid KE discrete gradient: disabled
  Impulse pair metric correction: disabled  (mode = pair discrete-gradient, cutoff = all pairs, inner/outer = 0/0, eps = 0.001, linear scale = 1, angular scale = 0)
  Impulse metric correction: disabled  (internal load constraint = disabled)
  Impulse variational defect probe: disabled
  Impulse quadratic pressure: disabled  (scale = 1)
  Added-mass stab:   disabled
  Exact BEM geometry: disabled
  Exact singular BEM: disabled
  Legacy singular SLP diagnostic: disabled
  Phi-dot blend:     0 (off)

  Solver guidance:
    - Strong coupling: use for stiff close-coupled runs; slower but more implicit.
    - Impulse scheme: use when impulse/momentum conservation or KE drift is the focus. Recommended.
    - Added-mass stab: use for higher mesh counts (ndiv > 3) to preserve stability - deprecated.
================================================
Solver starting - good luck!

Initial state:
  Body  1
    density:          1.000000
    shape axes ratio: (1.000000, 0.999700, 0.999700)
    initial KE ratio: 0.500000
    position:         (-4.000000, 0.000000, 0.000000)
    velocity:         (-3.344620, 4.485573, 0.526628)
    angular velocity: (-2.668548, -3.809315, 4.224498)
    orientation:      (w=-0.405449, i=-0.214282, j=-0.063527, k=0.886374)
  Body  2
    density:          1.000000
    shape axes ratio: (1.000000, 0.999700, 0.999700)
    initial KE ratio: 0.500000
    position:         (4.000000, 0.000000, 0.000000)
    velocity:         (-3.344706, 4.485688, 0.526642)
    angular velocity: (-0.580492, 5.243362, -3.413004)
    orientation:      (w=0.604811, i=-0.395120, j=-0.414102, k=0.553719)

Preparing first step: implicit scheme, no bootstrap passes required.
First step may take longer than later steps.

First step completed in 8.403 s.

Step   100/2000    5.0% | t 5.000 | ETA 2m 48s | step 0.09s | KE 273.3085 | drift +0.91% | fluid 72.3780 | solid 200.9304
  Impulse FP iterations last/mean/max 6/6.31/7
Step   200/2000   10.0% | t 10.000 | ETA 2m 42s | step 0.09s | KE 278.7183 | drift +2.91% | fluid 72.3819 | solid 206.3364
  Impulse FP iterations last/mean/max 7/6.43/7
Step   300/2000   15.0% | t 15.000 | ETA 2m 35s | step 0.09s | KE 287.0563 | drift +5.99% | fluid 72.3830 | solid 214.6733
  Impulse FP iterations last/mean/max 7/6.53/7
Step   400/2000   20.0% | t 20.000 | ETA 2m 27s | step 0.08s | KE 298.3169 | drift +10.15% | fluid 72.3840 | solid 225.9329
  Impulse FP iterations last/mean/max 6/6.59/7
Step   500/2000   25.0% | t 25.000 | ETA 2m 19s | step 0.09s | KE 312.4979 | drift +15.38% | fluid 72.3811 | solid 240.1169
  Impulse FP iterations last/mean/max 7/6.66/7
Step   600/2000   30.0% | t 30.000 | ETA 2m 8s | step 0.09s | KE 329.5973 | drift +21.70% | fluid 72.3796 | solid 257.2176
  Impulse FP iterations last/mean/max 7/6.72/7
Step   700/2000   35.0% | t 35.000 | ETA 1m 59s | step 0.09s | KE 349.6150 | drift +29.09% | fluid 72.3851 | solid 277.2299
  Impulse FP iterations last/mean/max 7/6.76/7
Step   800/2000   40.0% | t 40.000 | ETA 1m 50s | step 0.10s | KE 372.5569 | drift +37.56% | fluid 72.3791 | solid 300.1778
  Impulse FP iterations last/mean/max 7/6.79/7
Step   900/2000   45.0% | t 45.000 | ETA 1m 41s | step 0.10s | KE 398.4205 | drift +47.11% | fluid 72.3846 | solid 326.0359
  Impulse FP iterations last/mean/max 7/6.81/7
Step  1000/2000   50.0% | t 50.000 | ETA 1m 33s | step 0.09s | KE 427.2149 | drift +57.74% | fluid 72.3794 | solid 354.8355
  Impulse FP iterations last/mean/max 7/6.83/7
Step  1100/2000   55.0% | t 55.000 | ETA 1m 24s | step 0.10s | KE 458.9369 | drift +69.45% | fluid 72.3782 | solid 386.5588
  Impulse FP iterations last/mean/max 7/6.85/7
Step  1200/2000   60.0% | t 60.000 | ETA 1m 15s | step 0.10s | KE 493.5853 | drift +82.25% | fluid 72.3875 | solid 421.1978
  Impulse FP iterations last/mean/max 7/6.86/7
Step  1300/2000   65.0% | t 65.000 | ETA 1m 6s | step 0.10s | KE 531.1692 | drift +96.12% | fluid 72.3868 | solid 458.7824
  Impulse FP iterations last/mean/max 7/6.87/7
Step  1400/2000   70.0% | t 70.000 | ETA 56s | step 0.11s | KE 571.6892 | drift +111.09% | fluid 72.3837 | solid 499.3056
  Impulse FP iterations last/mean/max 7/6.88/7
Step  1500/2000   75.0% | t 75.000 | ETA 47s | step 0.09s | KE 615.1361 | drift +127.13% | fluid 72.3826 | solid 542.7535
  Impulse FP iterations last/mean/max 7/6.89/7
Step  1600/2000   80.0% | t 80.000 | ETA 37s | step 0.09s | KE 661.5225 | drift +144.25% | fluid 72.3782 | solid 589.1443
  Impulse FP iterations last/mean/max 7/6.89/7
Step  1700/2000   85.0% | t 85.000 | ETA 28s | step 0.08s | KE 710.8328 | drift +162.46% | fluid 72.3845 | solid 638.4483
  Impulse FP iterations last/mean/max 7/6.90/7
Step  1800/2000   90.0% | t 90.000 | ETA 18s | step 0.08s | KE 763.0830 | drift +181.75% | fluid 72.3817 | solid 690.7013
  Impulse FP iterations last/mean/max 7/6.91/7
Step  1900/2000   95.0% | t 95.000 | ETA 9s | step 0.08s | KE 818.2557 | drift +202.13% | fluid 72.3860 | solid 745.8696
  Impulse FP iterations last/mean/max 7/6.91/7
Solver finished successfully - good job!
Results saved successfully.

================== Run summary ==================
  Bodies:            2
  Triangles / nodes: 256 / 516
  Timesteps:         2000  (dt = 0.05)
  Simulated time:    0 -> 100
  First-step setup:  8.403 s
  Mean time/step:    0.0914 s  (excl. first step)
  Total wall time:   3m 11s
  Impulse FP iters last/mean/max: 7 / 6.915 / 7
  Approx impulse solves/step:     6.915
  Impulse start cache hits/direct: 1999 / 1
  Impulse global drift P/H:       2.353776e-9 / 1.019282e-1
  Impulse per-body max drift P/H: 4.844230e-9 / 5.694170e-3
  CPU cores:         256 available, 8 Rayon worker thread(s)
  Started:           2026-06-24 02:23:11
  Finished:          2026-06-24 02:26:22
  Output file:       /work/e643/e643/shared/multi_ellip/studies/departing_sphericity_sweep/runs/spheroid_prolate/homogeneous/spheroid_prolate_homogeneous_eps0p0001_rho1_E0p5_sep8_run08_impulse_noproj/multiple_body_complete.dat
================================================
