
================ Simulation setup ================
  Run label:         /work/e643/e643/shared/multi_ellip/studies/two_body_paper_sweeps/runs/spheroid_1_0p7_0p7/spheroid_1_0p7_0p7_rho4_E1p5_sep11_run05_impulse_noproj/
  Started:           2026-06-24 01:25:47
  Input file:        /work/e643/e643/shared/multi_ellip/studies/two_body_paper_sweeps/runs/spheroid_1_0p7_0p7/spheroid_1_0p7_0p7_rho4_E1p5_sep11_run05_impulse_noproj/input.txt
  Output file:       /work/e643/e643/shared/multi_ellip/studies/two_body_paper_sweeps/runs/spheroid_1_0p7_0p7/spheroid_1_0p7_0p7_rho4_E1p5_sep11_run05_impulse_noproj/multiple_body_complete.dat
  Bodies:            2
  Fluid density:     1
  Mesh:              ndiv 2 -> 256 triangles / 516 nodes
  Simulated time:    0 -> 100  (dt = 0.05, ~2000 steps)
  Output cadence:    every 1 step(s)
  Output rows:       ~2001
  Progress cadence:  every 100 step(s)
  CPU cores:         256 available, 8 Rayon worker thread(s)
  Strong coupling:   disabled
  Impulse scheme:    enabled
  Hamiltonian step:  disabled
  Hamiltonian midpt: disabled
  Variational step:  disabled
  Energy projection: disabled
  Projection particular metric: Euclidean
  Fluid KE gradient: disabled  (eps = 0.001, scale = 1, linear = 1, angular = 1)
  Fluid KE discrete gradient: disabled
  Impulse pair metric correction: disabled  (mode = pair discrete-gradient, cutoff = all pairs, inner/outer = 0/0, eps = 0.001, linear scale = 1, angular scale = 0)
  Impulse metric correction: disabled  (internal load constraint = disabled)
  Impulse variational defect probe: disabled
  Impulse quadratic pressure: disabled  (scale = 1)
  Added-mass stab:   disabled
  Exact BEM geometry: disabled
  Exact singular BEM: disabled
  Legacy singular SLP diagnostic: disabled
  Phi-dot blend:     0 (off)

  Solver guidance:
    - Strong coupling: use for stiff close-coupled runs; slower but more implicit.
    - Impulse scheme: use when impulse/momentum conservation or KE drift is the focus. Recommended.
    - Added-mass stab: use for higher mesh counts (ndiv > 3) to preserve stability - deprecated.
================================================
Solver starting - good luck!

Initial state:
  Body  1
    density:          4.000000
    shape axes ratio: (1.000000, 0.700000, 0.700000)
    initial KE ratio: 1.500000
    position:         (-5.500000, 0.000000, 0.000000)
    velocity:         (0.089259, 3.378973, 1.036640)
    angular velocity: (1.042171, -5.640586, -2.564388)
    orientation:      (w=-0.283644, i=0.786612, j=0.265865, k=-0.479691)
  Body  2
    density:          4.000000
    shape axes ratio: (1.000000, 0.700000, 0.700000)
    initial KE ratio: 1.500000
    position:         (5.500000, 0.000000, 0.000000)
    velocity:         (0.077677, 2.940505, 0.902122)
    angular velocity: (5.367866, 2.272312, 2.345427)
    orientation:      (w=0.360808, i=-0.416437, j=0.798657, k=-0.241961)

Preparing first step: implicit scheme, no bootstrap passes required.
First step may take longer than later steps.

First step completed in 0.228 s.

Step   100/2000    5.0% | t 5.000 | ETA 3m 0s | step 0.10s | KE 490.6540 | drift -0.01% | fluid 28.9420 | solid 461.7120
  Impulse FP iterations last/mean/max 7/7.10/8
Step   200/2000   10.0% | t 10.000 | ETA 2m 57s | step 0.09s | KE 490.5769 | drift -0.03% | fluid 31.2392 | solid 459.3377
  Impulse FP iterations last/mean/max 7/7.12/8
Step   300/2000   15.0% | t 15.000 | ETA 2m 49s | step 0.09s | KE 490.6563 | drift -0.01% | fluid 31.8966 | solid 458.7597
  Impulse FP iterations last/mean/max 6/7.11/8
Step   400/2000   20.0% | t 20.000 | ETA 2m 41s | step 0.10s | KE 490.8975 | drift +0.04% | fluid 30.9002 | solid 459.9973
  Impulse FP iterations last/mean/max 7/7.11/8
Step   500/2000   25.0% | t 25.000 | ETA 2m 31s | step 0.10s | KE 491.1171 | drift +0.08% | fluid 30.9524 | solid 460.1647
  Impulse FP iterations last/mean/max 7/7.10/8
Step   600/2000   30.0% | t 30.000 | ETA 2m 21s | step 0.10s | KE 491.2379 | drift +0.11% | fluid 32.4235 | solid 458.8144
  Impulse FP iterations last/mean/max 7/7.11/8
Step   700/2000   35.0% | t 35.000 | ETA 2m 11s | step 0.12s | KE 491.3572 | drift +0.13% | fluid 32.3109 | solid 459.0463
  Impulse FP iterations last/mean/max 8/7.10/8
Step   800/2000   40.0% | t 40.000 | ETA 2m 1s | step 0.11s | KE 491.5107 | drift +0.16% | fluid 30.0360 | solid 461.4747
  Impulse FP iterations last/mean/max 7/7.10/8
Step   900/2000   45.0% | t 45.000 | ETA 1m 51s | step 0.10s | KE 491.5875 | drift +0.18% | fluid 29.1359 | solid 462.4517
  Impulse FP iterations last/mean/max 7/7.10/8
Step  1000/2000   50.0% | t 50.000 | ETA 1m 41s | step 0.10s | KE 491.5500 | drift +0.17% | fluid 31.1467 | solid 460.4033
  Impulse FP iterations last/mean/max 7/7.10/8
Step  1100/2000   55.0% | t 55.000 | ETA 1m 31s | step 0.10s | KE 491.5215 | drift +0.16% | fluid 32.9169 | solid 458.6046
  Impulse FP iterations last/mean/max 7/7.10/8
Step  1200/2000   60.0% | t 60.000 | ETA 1m 21s | step 0.10s | KE 491.5883 | drift +0.18% | fluid 32.0665 | solid 459.5218
  Impulse FP iterations last/mean/max 7/7.10/8
Step  1300/2000   65.0% | t 65.000 | ETA 1m 10s | step 0.10s | KE 491.6410 | drift +0.19% | fluid 31.1904 | solid 460.4506
  Impulse FP iterations last/mean/max 7/7.10/8
Step  1400/2000   70.0% | t 70.000 | ETA 1m 0s | step 0.10s | KE 491.5986 | drift +0.18% | fluid 32.3047 | solid 459.2939
  Impulse FP iterations last/mean/max 7/7.10/8
Step  1500/2000   75.0% | t 75.000 | ETA 50s | step 0.10s | KE 491.5691 | drift +0.17% | fluid 32.7100 | solid 458.8591
  Impulse FP iterations last/mean/max 7/7.11/8
Step  1600/2000   80.0% | t 80.000 | ETA 40s | step 0.11s | KE 491.6361 | drift +0.19% | fluid 30.5572 | solid 461.0789
  Impulse FP iterations last/mean/max 8/7.11/8
Step  1700/2000   85.0% | t 85.000 | ETA 30s | step 0.10s | KE 491.6893 | drift +0.20% | fluid 29.0368 | solid 462.6525
  Impulse FP iterations last/mean/max 7/7.10/8
Step  1800/2000   90.0% | t 90.000 | ETA 20s | step 0.10s | KE 491.6403 | drift +0.19% | fluid 30.6574 | solid 460.9829
  Impulse FP iterations last/mean/max 7/7.10/8
Step  1900/2000   95.0% | t 95.000 | ETA 10s | step 0.10s | KE 491.5811 | drift +0.18% | fluid 32.8116 | solid 458.7695
  Impulse FP iterations last/mean/max 7/7.10/8
Solver finished successfully - good job!
Results saved successfully.

================== Run summary ==================
  Bodies:            2
  Triangles / nodes: 256 / 516
  Timesteps:         2000  (dt = 0.05)
  Simulated time:    0 -> 100
  First-step setup:  0.228 s
  Mean time/step:    0.1011 s  (excl. first step)
  Total wall time:   3m 22s
  Impulse FP iters last/mean/max: 7 / 7.101 / 8
  Approx impulse solves/step:     7.102
  Impulse start cache hits/direct: 1999 / 1
  Impulse global drift P/H:       5.024665e-9 / 1.084626e-2
  Impulse per-body max drift P/H: 1.072859e-8 / 2.283088e-3
  CPU cores:         256 available, 8 Rayon worker thread(s)
  Started:           2026-06-24 01:25:47
  Finished:          2026-06-24 01:29:10
  Output file:       /work/e643/e643/shared/multi_ellip/studies/two_body_paper_sweeps/runs/spheroid_1_0p7_0p7/spheroid_1_0p7_0p7_rho4_E1p5_sep11_run05_impulse_noproj/multiple_body_complete.dat
================================================
