
================ Simulation setup ================
  Run label:         /work/e643/e643/shared/multi_ellip/studies/two_body_paper_sweeps/runs/ellipsoid_1_0p8_0p6/ellipsoid_1_0p8_0p6_rho4_E11_sep5_run01_impulse_noproj/
  Started:           2026-06-22 19:30:42
  Input file:        /work/e643/e643/shared/multi_ellip/studies/two_body_paper_sweeps/runs/ellipsoid_1_0p8_0p6/ellipsoid_1_0p8_0p6_rho4_E11_sep5_run01_impulse_noproj/input.txt
  Output file:       /work/e643/e643/shared/multi_ellip/studies/two_body_paper_sweeps/runs/ellipsoid_1_0p8_0p6/ellipsoid_1_0p8_0p6_rho4_E11_sep5_run01_impulse_noproj/multiple_body_complete.dat
  Bodies:            2
  Fluid density:     1
  Mesh:              ndiv 2 -> 256 triangles / 516 nodes
  Simulated time:    0 -> 100  (dt = 0.05, ~2000 steps)
  Output cadence:    every 1 step(s)
  Output rows:       ~2001
  Progress cadence:  every 100 step(s)
  CPU cores:         256 available, 8 Rayon worker thread(s)
  Strong coupling:   disabled
  Impulse scheme:    enabled
  Hamiltonian step:  disabled
  Hamiltonian midpt: disabled
  Variational step:  disabled
  Energy projection: disabled
  Projection particular metric: Euclidean
  Fluid KE gradient: disabled  (eps = 0.001, scale = 1, linear = 1, angular = 1)
  Fluid KE discrete gradient: disabled
  Impulse pair metric correction: disabled  (mode = pair discrete-gradient, cutoff = all pairs, inner/outer = 0/0, eps = 0.001, linear scale = 1, angular scale = 0)
  Impulse metric correction: disabled  (internal load constraint = disabled)
  Impulse variational defect probe: disabled
  Impulse quadratic pressure: disabled  (scale = 1)
  Added-mass stab:   disabled
  Exact BEM geometry: disabled
  Exact singular BEM: disabled
  Legacy singular SLP diagnostic: disabled
  Phi-dot blend:     0 (off)

  Solver guidance:
    - Strong coupling: use for stiff close-coupled runs; slower but more implicit.
    - Impulse scheme: use when impulse/momentum conservation or KE drift is the focus. Recommended.
    - Added-mass stab: use for higher mesh counts (ndiv > 3) to preserve stability - deprecated.
================================================
Solver starting - good luck!

Initial state:
  Body  1
    density:          4.000000
    shape axes ratio: (1.000000, 0.800000, 0.600000)
    initial KE ratio: 11.000000
    position:         (-2.500000, 0.000000, 0.000000)
    velocity:         (0.471949, 0.342319, -1.124742)
    angular velocity: (0.616233, 6.090414, 1.416170)
    orientation:      (w=0.447214, i=0.894427, j=0.000000, k=0.000000)
  Body  2
    density:          4.000000
    shape axes ratio: (1.000000, 0.800000, 0.600000)
    initial KE ratio: 11.000000
    position:         (2.500000, 0.000000, 0.000000)
    velocity:         (0.439952, 0.319111, -1.048488)
    angular velocity: (-5.260479, 0.164805, 3.432000)
    orientation:      (w=0.707107, i=0.000000, j=0.707107, k=0.000000)

Preparing first step: implicit scheme, no bootstrap passes required.
First step may take longer than later steps.

First step completed in 0.282 s.

Step   100/2000    5.0% | t 5.000 | ETA 3m 44s | step 0.13s | KE 358.0328 | drift -0.42% | fluid 8.8671 | solid 349.1657
  Impulse FP iterations last/mean/max 9/8.66/9
Step   200/2000   10.0% | t 10.000 | ETA 3m 31s | step 0.10s | KE 357.2039 | drift -0.65% | fluid 8.6074 | solid 348.5965
  Impulse FP iterations last/mean/max 8/8.61/9
Step   300/2000   15.0% | t 15.000 | ETA 3m 19s | step 0.13s | KE 357.0728 | drift -0.69% | fluid 6.1629 | solid 350.9098
  Impulse FP iterations last/mean/max 9/8.57/9
Step   400/2000   20.0% | t 20.000 | ETA 3m 7s | step 0.11s | KE 357.5537 | drift -0.55% | fluid 7.2565 | solid 350.2971
  Impulse FP iterations last/mean/max 9/8.57/9
Step   500/2000   25.0% | t 25.000 | ETA 2m 55s | step 0.10s | KE 358.3165 | drift -0.34% | fluid 9.6089 | solid 348.7076
  Impulse FP iterations last/mean/max 8/8.54/9
Step   600/2000   30.0% | t 30.000 | ETA 2m 43s | step 0.11s | KE 359.2400 | drift -0.08% | fluid 7.8443 | solid 351.3957
  Impulse FP iterations last/mean/max 8/8.53/9
Step   700/2000   35.0% | t 35.000 | ETA 2m 31s | step 0.13s | KE 360.0745 | drift +0.15% | fluid 7.6059 | solid 352.4686
  Impulse FP iterations last/mean/max 9/8.51/9
Step   800/2000   40.0% | t 40.000 | ETA 2m 19s | step 0.12s | KE 360.8501 | drift +0.36% | fluid 9.4707 | solid 351.3794
  Impulse FP iterations last/mean/max 8/8.50/9
Step   900/2000   45.0% | t 45.000 | ETA 2m 7s | step 0.11s | KE 361.4791 | drift +0.54% | fluid 8.4539 | solid 353.0253
  Impulse FP iterations last/mean/max 8/8.50/9
Step  1000/2000   50.0% | t 50.000 | ETA 1m 56s | step 0.11s | KE 362.0042 | drift +0.69% | fluid 6.3102 | solid 355.6941
  Impulse FP iterations last/mean/max 8/8.49/9
Step  1100/2000   55.0% | t 55.000 | ETA 1m 44s | step 0.11s | KE 362.4031 | drift +0.80% | fluid 8.8795 | solid 353.5236
  Impulse FP iterations last/mean/max 8/8.49/9
Step  1200/2000   60.0% | t 60.000 | ETA 1m 32s | step 0.13s | KE 362.7302 | drift +0.89% | fluid 8.8100 | solid 353.9201
  Impulse FP iterations last/mean/max 9/8.49/9
Step  1300/2000   65.0% | t 65.000 | ETA 1m 21s | step 0.12s | KE 362.9942 | drift +0.96% | fluid 6.3078 | solid 356.6864
  Impulse FP iterations last/mean/max 9/8.48/9
Step  1400/2000   70.0% | t 70.000 | ETA 1m 9s | step 0.11s | KE 363.2020 | drift +1.02% | fluid 8.3510 | solid 354.8510
  Impulse FP iterations last/mean/max 8/8.48/9
Step  1500/2000   75.0% | t 75.000 | ETA 57s | step 0.11s | KE 363.3742 | drift +1.07% | fluid 8.9288 | solid 354.4453
  Impulse FP iterations last/mean/max 8/8.48/9
Step  1600/2000   80.0% | t 80.000 | ETA 46s | step 0.10s | KE 363.5082 | drift +1.10% | fluid 6.6925 | solid 356.8157
  Impulse FP iterations last/mean/max 8/8.47/9
Step  1700/2000   85.0% | t 85.000 | ETA 34s | step 0.13s | KE 363.6323 | drift +1.14% | fluid 7.7275 | solid 355.9048
  Impulse FP iterations last/mean/max 9/8.47/9
Step  1800/2000   90.0% | t 90.000 | ETA 23s | step 0.12s | KE 363.7061 | drift +1.16% | fluid 9.5688 | solid 354.1373
  Impulse FP iterations last/mean/max 9/8.47/9
Step  1900/2000   95.0% | t 95.000 | ETA 11s | step 0.12s | KE 363.8012 | drift +1.19% | fluid 7.2150 | solid 356.5861
  Impulse FP iterations last/mean/max 9/8.46/9
Solver finished successfully - good job!
Results saved successfully.

================== Run summary ==================
  Bodies:            2
  Triangles / nodes: 256 / 516
  Timesteps:         2000  (dt = 0.05)
  Simulated time:    0 -> 100
  First-step setup:  0.282 s
  Mean time/step:    0.1150 s  (excl. first step)
  Total wall time:   3m 50s
  Impulse FP iters last/mean/max: 9 / 8.463 / 9
  Approx impulse solves/step:     8.463
  Impulse start cache hits/direct: 1999 / 1
  Impulse global drift P/H:       2.478959e-8 / 6.607817e-3
  Impulse per-body max drift P/H: 3.499043e-8 / 2.561434e-2
  CPU cores:         256 available, 8 Rayon worker thread(s)
  Started:           2026-06-22 19:30:42
  Finished:          2026-06-22 19:34:32
  Output file:       /work/e643/e643/shared/multi_ellip/studies/two_body_paper_sweeps/runs/ellipsoid_1_0p8_0p6/ellipsoid_1_0p8_0p6_rho4_E11_sep5_run01_impulse_noproj/multiple_body_complete.dat
================================================
