
================ Simulation setup ================
  Run label:         /work/e643/e643/shared/multi_ellip/studies/two_body_paper_sweeps/runs/spheroid_1_0p7_0p7/spheroid_1_0p7_0p7_rho0p03_E30_sep3_run01_impulse_noproj/
  Started:           2026-06-22 20:09:22
  Input file:        /work/e643/e643/shared/multi_ellip/studies/two_body_paper_sweeps/runs/spheroid_1_0p7_0p7/spheroid_1_0p7_0p7_rho0p03_E30_sep3_run01_impulse_noproj/input.txt
  Output file:       /work/e643/e643/shared/multi_ellip/studies/two_body_paper_sweeps/runs/spheroid_1_0p7_0p7/spheroid_1_0p7_0p7_rho0p03_E30_sep3_run01_impulse_noproj/multiple_body_complete.dat
  Bodies:            2
  Fluid density:     1
  Mesh:              ndiv 2 -> 256 triangles / 516 nodes
  Simulated time:    0 -> 100  (dt = 0.05, ~2000 steps)
  Output cadence:    every 1 step(s)
  Output rows:       ~2001
  Progress cadence:  every 100 step(s)
  CPU cores:         256 available, 8 Rayon worker thread(s)
  Strong coupling:   disabled
  Impulse scheme:    enabled
  Hamiltonian step:  disabled
  Hamiltonian midpt: disabled
  Variational step:  disabled
  Energy projection: disabled
  Projection particular metric: Euclidean
  Fluid KE gradient: disabled  (eps = 0.001, scale = 1, linear = 1, angular = 1)
  Fluid KE discrete gradient: disabled
  Impulse pair metric correction: disabled  (mode = pair discrete-gradient, cutoff = all pairs, inner/outer = 0/0, eps = 0.001, linear scale = 1, angular scale = 0)
  Impulse metric correction: disabled  (internal load constraint = disabled)
  Impulse variational defect probe: disabled
  Impulse quadratic pressure: disabled  (scale = 1)
  Added-mass stab:   disabled
  Exact BEM geometry: disabled
  Exact singular BEM: disabled
  Legacy singular SLP diagnostic: disabled
  Phi-dot blend:     0 (off)

  Solver guidance:
    - Strong coupling: use for stiff close-coupled runs; slower but more implicit.
    - Impulse scheme: use when impulse/momentum conservation or KE drift is the focus. Recommended.
    - Added-mass stab: use for higher mesh counts (ndiv > 3) to preserve stability - deprecated.
================================================
Solver starting - good luck!

Initial state:
  Body  1
    density:          0.030000
    shape axes ratio: (1.000000, 0.700000, 0.700000)
    initial KE ratio: 30.000000
    position:         (-1.500000, 0.000000, 0.000000)
    velocity:         (-0.527900, -0.190515, 0.443983)
    angular velocity: (-4.661123, 4.038219, -1.202138)
    orientation:      (w=0.447214, i=0.894427, j=0.000000, k=0.000000)
  Body  2
    density:          0.030000
    shape axes ratio: (1.000000, 0.700000, 0.700000)
    initial KE ratio: 30.000000
    position:         (1.500000, 0.000000, 0.000000)
    velocity:         (-0.541509, -0.195427, 0.455429)
    angular velocity: (-4.103291, 2.393073, -4.112738)
    orientation:      (w=0.707107, i=0.000000, j=0.707107, k=0.000000)

Preparing first step: implicit scheme, no bootstrap passes required.
First step may take longer than later steps.

First step completed in 0.579 s.

Step   100/2000    5.0% | t 5.000 | ETA 11m 11s | step 0.34s | KE 10.9433 | drift +68.83% | fluid 5.0022 | solid 5.9411
  Impulse FP iterations last/mean/max 23/23.93/28
Step   200/2000   10.0% | t 10.000 | ETA 10m 58s | step 0.38s | KE 21.0000 | drift +223.98% | fluid 12.3755 | solid 8.6245
  Impulse FP iterations last/mean/max 27/24.59/28
Step   300/2000   15.0% | t 15.000 | ETA 10m 23s | step 0.37s | KE 26.2922 | drift +305.63% | fluid 15.6656 | solid 10.6267
  Impulse FP iterations last/mean/max 26/24.72/28
Step   400/2000   20.0% | t 20.000 | ETA 9m 39s | step 0.30s | KE 27.1491 | drift +318.84% | fluid 16.3968 | solid 10.7522
  Impulse FP iterations last/mean/max 22/24.52/28
Step   500/2000   25.0% | t 25.000 | ETA 8m 56s | step 0.38s | KE 27.4675 | drift +323.76% | fluid 16.6106 | solid 10.8570
  Impulse FP iterations last/mean/max 26/24.27/28
Step   600/2000   30.0% | t 30.000 | ETA 8m 14s | step 0.32s | KE 27.6086 | drift +325.93% | fluid 16.7472 | solid 10.8615
  Impulse FP iterations last/mean/max 22/24.02/28
Step   700/2000   35.0% | t 35.000 | ETA 7m 34s | step 0.33s | KE 27.6526 | drift +326.61% | fluid 16.7974 | solid 10.8552
  Impulse FP iterations last/mean/max 22/23.82/28
Step   800/2000   40.0% | t 40.000 | ETA 6m 55s | step 0.34s | KE 27.6457 | drift +326.51% | fluid 16.7697 | solid 10.8760
  Impulse FP iterations last/mean/max 23/23.66/28
Step   900/2000   45.0% | t 45.000 | ETA 6m 18s | step 0.27s | KE 27.6866 | drift +327.14% | fluid 16.7718 | solid 10.9148
  Impulse FP iterations last/mean/max 19/23.53/28
Step  1000/2000   50.0% | t 50.000 | ETA 5m 41s | step 0.32s | KE 27.7264 | drift +327.75% | fluid 16.7863 | solid 10.9401
  Impulse FP iterations last/mean/max 22/23.42/28
Step  1100/2000   55.0% | t 55.000 | ETA 5m 4s | step 0.29s | KE 27.6891 | drift +327.18% | fluid 16.7659 | solid 10.9232
  Impulse FP iterations last/mean/max 22/23.34/28
Step  1200/2000   60.0% | t 60.000 | ETA 4m 28s | step 0.32s | KE 27.6876 | drift +327.15% | fluid 16.7964 | solid 10.8912
  Impulse FP iterations last/mean/max 24/23.27/28
Step  1300/2000   65.0% | t 65.000 | ETA 3m 53s | step 0.33s | KE 27.7427 | drift +328.00% | fluid 16.8685 | solid 10.8742
  Impulse FP iterations last/mean/max 23/23.20/28
Step  1400/2000   70.0% | t 70.000 | ETA 3m 19s | step 0.29s | KE 27.7282 | drift +327.78% | fluid 16.8515 | solid 10.8766
  Impulse FP iterations last/mean/max 20/23.15/28
Step  1500/2000   75.0% | t 75.000 | ETA 2m 45s | step 0.34s | KE 27.6867 | drift +327.14% | fluid 16.7864 | solid 10.9003
  Impulse FP iterations last/mean/max 23/23.12/28
Step  1600/2000   80.0% | t 80.000 | ETA 2m 11s | step 0.29s | KE 27.7244 | drift +327.72% | fluid 16.7899 | solid 10.9345
  Impulse FP iterations last/mean/max 25/23.08/28
Step  1700/2000   85.0% | t 85.000 | ETA 1m 37s | step 0.23s | KE 27.7425 | drift +328.00% | fluid 16.7998 | solid 10.9428
  Impulse FP iterations last/mean/max 23/23.05/28
Step  1800/2000   90.0% | t 90.000 | ETA 1m 3s | step 0.20s | KE 27.6950 | drift +327.27% | fluid 16.7807 | solid 10.9143
  Impulse FP iterations last/mean/max 23/23.01/28
Step  1900/2000   95.0% | t 95.000 | ETA 31s | step 0.21s | KE 27.7076 | drift +327.46% | fluid 16.8237 | solid 10.8838
  Impulse FP iterations last/mean/max 22/22.99/28
Solver finished successfully - good job!
Results saved successfully.

================== Run summary ==================
  Bodies:            2
  Triangles / nodes: 256 / 516
  Timesteps:         2000  (dt = 0.05)
  Simulated time:    0 -> 100
  First-step setup:  0.579 s
  Mean time/step:    0.3080 s  (excl. first step)
  Total wall time:   10m 16s
  Impulse FP iters last/mean/max: 22 / 22.967 / 28
  Approx impulse solves/step:     22.967
  Impulse start cache hits/direct: 1999 / 1
  Impulse global drift P/H:       1.224161e-7 / 7.084402e-2
  Impulse per-body max drift P/H: 3.085648e-7 / 1.144897e-1
  CPU cores:         256 available, 8 Rayon worker thread(s)
  Started:           2026-06-22 20:09:22
  Finished:          2026-06-22 20:19:39
  Output file:       /work/e643/e643/shared/multi_ellip/studies/two_body_paper_sweeps/runs/spheroid_1_0p7_0p7/spheroid_1_0p7_0p7_rho0p03_E30_sep3_run01_impulse_noproj/multiple_body_complete.dat
================================================
