
================ Simulation setup ================
  Run label:         /work/e643/e643/shared/multi_ellip/studies/departing_sphericity_sweep/runs/spheroid_prolate/homogeneous/spheroid_prolate_homogeneous_eps0p03_rho1_E0p5_sep8_run05_impulse_noproj/
  Started:           2026-06-24 02:30:36
  Input file:        /work/e643/e643/shared/multi_ellip/studies/departing_sphericity_sweep/runs/spheroid_prolate/homogeneous/spheroid_prolate_homogeneous_eps0p03_rho1_E0p5_sep8_run05_impulse_noproj/input.txt
  Output file:       /work/e643/e643/shared/multi_ellip/studies/departing_sphericity_sweep/runs/spheroid_prolate/homogeneous/spheroid_prolate_homogeneous_eps0p03_rho1_E0p5_sep8_run05_impulse_noproj/multiple_body_complete.dat
  Bodies:            2
  Fluid density:     1
  Mesh:              ndiv 2 -> 256 triangles / 516 nodes
  Simulated time:    0 -> 100  (dt = 0.05, ~2000 steps)
  Output cadence:    every 1 step(s)
  Output rows:       ~2001
  Progress cadence:  every 100 step(s)
  CPU cores:         256 available, 8 Rayon worker thread(s)
  Strong coupling:   disabled
  Impulse scheme:    enabled
  Hamiltonian step:  disabled
  Hamiltonian midpt: disabled
  Variational step:  disabled
  Energy projection: disabled
  Projection particular metric: Euclidean
  Fluid KE gradient: disabled  (eps = 0.001, scale = 1, linear = 1, angular = 1)
  Fluid KE discrete gradient: disabled
  Impulse pair metric correction: disabled  (mode = pair discrete-gradient, cutoff = all pairs, inner/outer = 0/0, eps = 0.001, linear scale = 1, angular scale = 0)
  Impulse metric correction: disabled  (internal load constraint = disabled)
  Impulse variational defect probe: disabled
  Impulse quadratic pressure: disabled  (scale = 1)
  Added-mass stab:   disabled
  Exact BEM geometry: disabled
  Exact singular BEM: disabled
  Legacy singular SLP diagnostic: disabled
  Phi-dot blend:     0 (off)

  Solver guidance:
    - Strong coupling: use for stiff close-coupled runs; slower but more implicit.
    - Impulse scheme: use when impulse/momentum conservation or KE drift is the focus. Recommended.
    - Added-mass stab: use for higher mesh counts (ndiv > 3) to preserve stability - deprecated.
================================================
Solver starting - good luck!

Initial state:
  Body  1
    density:          1.000000
    shape axes ratio: (1.000000, 0.915142, 0.915142)
    initial KE ratio: 0.500000
    position:         (-4.000000, 0.000000, 0.000000)
    velocity:         (4.288944, 1.670594, -3.328797)
    angular velocity: (-2.312858, -3.972175, 4.283799)
    orientation:      (w=0.206763, i=0.247721, j=0.272387, k=0.906471)
  Body  2
    density:          1.000000
    shape axes ratio: (1.000000, 0.915142, 0.915142)
    initial KE ratio: 0.500000
    position:         (4.000000, 0.000000, 0.000000)
    velocity:         (4.191077, 1.632473, -3.252839)
    angular velocity: (-5.024561, 2.289761, 2.998200)
    orientation:      (w=0.183392, i=-0.427225, j=0.463350, k=-0.754422)

Preparing first step: implicit scheme, no bootstrap passes required.
First step may take longer than later steps.

First step completed in 0.227 s.

Step   100/2000    5.0% | t 5.000 | ETA 3m 30s | step 0.12s | KE 268.4651 | drift -0.31% | fluid 70.1126 | solid 198.3524
  Impulse FP iterations last/mean/max 8/8.26/9
Step   200/2000   10.0% | t 10.000 | ETA 3m 25s | step 0.12s | KE 267.3483 | drift -0.73% | fluid 71.1219 | solid 196.2264
  Impulse FP iterations last/mean/max 8/8.28/9
Step   300/2000   15.0% | t 15.000 | ETA 3m 12s | step 0.10s | KE 266.3144 | drift -1.11% | fluid 71.4703 | solid 194.8441
  Impulse FP iterations last/mean/max 8/8.18/9
Step   400/2000   20.0% | t 20.000 | ETA 3m 1s | step 0.12s | KE 267.2894 | drift -0.75% | fluid 71.1777 | solid 196.1116
  Impulse FP iterations last/mean/max 8/8.12/9
Step   500/2000   25.0% | t 25.000 | ETA 2m 50s | step 0.12s | KE 267.9809 | drift -0.49% | fluid 70.2245 | solid 197.7563
  Impulse FP iterations last/mean/max 8/8.08/9
Step   600/2000   30.0% | t 30.000 | ETA 2m 38s | step 0.12s | KE 268.2519 | drift -0.39% | fluid 70.2964 | solid 197.9555
  Impulse FP iterations last/mean/max 8/8.03/9
Step   700/2000   35.0% | t 35.000 | ETA 2m 26s | step 0.11s | KE 268.7690 | drift -0.20% | fluid 70.1035 | solid 198.6655
  Impulse FP iterations last/mean/max 8/7.98/9
Step   800/2000   40.0% | t 40.000 | ETA 2m 14s | step 0.10s | KE 268.3110 | drift -0.37% | fluid 71.0827 | solid 197.2284
  Impulse FP iterations last/mean/max 7/7.93/9
Step   900/2000   45.0% | t 45.000 | ETA 2m 2s | step 0.11s | KE 267.7084 | drift -0.59% | fluid 70.7102 | solid 196.9983
  Impulse FP iterations last/mean/max 8/7.88/9
Step  1000/2000   50.0% | t 50.000 | ETA 1m 51s | step 0.10s | KE 267.8763 | drift -0.53% | fluid 71.2374 | solid 196.6390
  Impulse FP iterations last/mean/max 7/7.83/9
Step  1100/2000   55.0% | t 55.000 | ETA 1m 39s | step 0.10s | KE 268.1457 | drift -0.43% | fluid 71.1737 | solid 196.9720
  Impulse FP iterations last/mean/max 8/7.79/9
Step  1200/2000   60.0% | t 60.000 | ETA 1m 27s | step 0.12s | KE 268.1119 | drift -0.44% | fluid 71.2033 | solid 196.9086
  Impulse FP iterations last/mean/max 8/7.76/9
Step  1300/2000   65.0% | t 65.000 | ETA 1m 15s | step 0.11s | KE 268.1481 | drift -0.43% | fluid 70.5610 | solid 197.5872
  Impulse FP iterations last/mean/max 8/7.73/9
Step  1400/2000   70.0% | t 70.000 | ETA 1m 4s | step 0.10s | KE 268.1625 | drift -0.42% | fluid 70.1192 | solid 198.0433
  Impulse FP iterations last/mean/max 7/7.70/9
Step  1500/2000   75.0% | t 75.000 | ETA 53s | step 0.10s | KE 267.9798 | drift -0.49% | fluid 70.8035 | solid 197.1763
  Impulse FP iterations last/mean/max 7/7.67/9
Step  1600/2000   80.0% | t 80.000 | ETA 42s | step 0.11s | KE 267.9721 | drift -0.50% | fluid 70.7627 | solid 197.2095
  Impulse FP iterations last/mean/max 8/7.65/9
Step  1700/2000   85.0% | t 85.000 | ETA 31s | step 0.11s | KE 268.1992 | drift -0.41% | fluid 71.1573 | solid 197.0419
  Impulse FP iterations last/mean/max 7/7.64/9
Step  1800/2000   90.0% | t 90.000 | ETA 21s | step 0.11s | KE 268.2613 | drift -0.39% | fluid 70.5690 | solid 197.6923
  Impulse FP iterations last/mean/max 8/7.62/9
Step  1900/2000   95.0% | t 95.000 | ETA 10s | step 0.10s | KE 268.0616 | drift -0.46% | fluid 71.3157 | solid 196.7459
  Impulse FP iterations last/mean/max 7/7.61/9
Solver finished successfully - good job!
Results saved successfully.

================== Run summary ==================
  Bodies:            2
  Triangles / nodes: 256 / 516
  Timesteps:         2000  (dt = 0.05)
  Simulated time:    0 -> 100
  First-step setup:  0.227 s
  Mean time/step:    0.1066 s  (excl. first step)
  Total wall time:   3m 33s
  Impulse FP iters last/mean/max: 7 / 7.597 / 9
  Approx impulse solves/step:     7.598
  Impulse start cache hits/direct: 1999 / 1
  Impulse global drift P/H:       7.656448e-9 / 1.244464e-2
  Impulse per-body max drift P/H: 1.091394e-8 / 1.878942e-3
  CPU cores:         256 available, 8 Rayon worker thread(s)
  Started:           2026-06-24 02:30:36
  Finished:          2026-06-24 02:34:09
  Output file:       /work/e643/e643/shared/multi_ellip/studies/departing_sphericity_sweep/runs/spheroid_prolate/homogeneous/spheroid_prolate_homogeneous_eps0p03_rho1_E0p5_sep8_run05_impulse_noproj/multiple_body_complete.dat
================================================
