
================ Simulation setup ================
  Run label:         /work/e643/e643/shared/multi_ellip/studies/two_body_paper_sweeps/runs/spheroid_1_0p7_0p7/spheroid_1_0p7_0p7_rho0p1_E1p5_sep3_run05_impulse_noproj/
  Started:           2026-06-24 01:58:41
  Input file:        /work/e643/e643/shared/multi_ellip/studies/two_body_paper_sweeps/runs/spheroid_1_0p7_0p7/spheroid_1_0p7_0p7_rho0p1_E1p5_sep3_run05_impulse_noproj/input.txt
  Output file:       /work/e643/e643/shared/multi_ellip/studies/two_body_paper_sweeps/runs/spheroid_1_0p7_0p7/spheroid_1_0p7_0p7_rho0p1_E1p5_sep3_run05_impulse_noproj/multiple_body_complete.dat
  Bodies:            2
  Fluid density:     1
  Mesh:              ndiv 2 -> 256 triangles / 516 nodes
  Simulated time:    0 -> 100  (dt = 0.05, ~2000 steps)
  Output cadence:    every 1 step(s)
  Output rows:       ~2001
  Progress cadence:  every 100 step(s)
  CPU cores:         256 available, 8 Rayon worker thread(s)
  Strong coupling:   disabled
  Impulse scheme:    enabled
  Hamiltonian step:  disabled
  Hamiltonian midpt: disabled
  Variational step:  disabled
  Energy projection: disabled
  Projection particular metric: Euclidean
  Fluid KE gradient: disabled  (eps = 0.001, scale = 1, linear = 1, angular = 1)
  Fluid KE discrete gradient: disabled
  Impulse pair metric correction: disabled  (mode = pair discrete-gradient, cutoff = all pairs, inner/outer = 0/0, eps = 0.001, linear scale = 1, angular scale = 0)
  Impulse metric correction: disabled  (internal load constraint = disabled)
  Impulse variational defect probe: disabled
  Impulse quadratic pressure: disabled  (scale = 1)
  Added-mass stab:   disabled
  Exact BEM geometry: disabled
  Exact singular BEM: disabled
  Legacy singular SLP diagnostic: disabled
  Phi-dot blend:     0 (off)

  Solver guidance:
    - Strong coupling: use for stiff close-coupled runs; slower but more implicit.
    - Impulse scheme: use when impulse/momentum conservation or KE drift is the focus. Recommended.
    - Added-mass stab: use for higher mesh counts (ndiv > 3) to preserve stability - deprecated.
================================================
Solver starting - good luck!

Initial state:
  Body  1
    density:          0.100000
    shape axes ratio: (1.000000, 0.700000, 0.700000)
    initial KE ratio: 1.500000
    position:         (-1.500000, 0.000000, 0.000000)
    velocity:         (0.221126, -2.342531, 2.656682)
    angular velocity: (0.473888, 0.588164, -6.237621)
    orientation:      (w=0.468115, i=0.556231, j=0.238322, k=0.643955)
  Body  2
    density:          0.100000
    shape axes ratio: (1.000000, 0.700000, 0.700000)
    initial KE ratio: 1.500000
    position:         (1.500000, 0.000000, 0.000000)
    velocity:         (0.206432, -2.186864, 2.480138)
    angular velocity: (3.874990, 0.556815, 4.914553)
    orientation:      (w=-0.384379, i=0.045865, j=-0.474201, k=0.790748)

Preparing first step: implicit scheme, no bootstrap passes required.
First step may take longer than later steps.

First step completed in 0.446 s.

Step   100/2000    5.0% | t 5.000 | ETA 7m 4s | step 0.22s | KE 50.4384 | drift +0.56% | fluid 39.0156 | solid 11.4228
  Impulse FP iterations last/mean/max 16/16.04/18
Step   200/2000   10.0% | t 10.000 | ETA 6m 30s | step 0.19s | KE 50.9469 | drift +1.57% | fluid 39.6378 | solid 11.3091
  Impulse FP iterations last/mean/max 15/15.72/18
Step   300/2000   15.0% | t 15.000 | ETA 6m 1s | step 0.21s | KE 51.6976 | drift +3.07% | fluid 39.6687 | solid 12.0289
  Impulse FP iterations last/mean/max 15/15.49/18
Step   400/2000   20.0% | t 20.000 | ETA 5m 34s | step 0.19s | KE 51.6807 | drift +3.03% | fluid 39.6910 | solid 11.9896
  Impulse FP iterations last/mean/max 14/15.34/18
Step   500/2000   25.0% | t 25.000 | ETA 5m 10s | step 0.20s | KE 51.5806 | drift +2.83% | fluid 39.7283 | solid 11.8523
  Impulse FP iterations last/mean/max 15/15.22/18
Step   600/2000   30.0% | t 30.000 | ETA 4m 47s | step 0.19s | KE 51.5646 | drift +2.80% | fluid 39.6671 | solid 11.8975
  Impulse FP iterations last/mean/max 13/15.12/18
Step   700/2000   35.0% | t 35.000 | ETA 4m 25s | step 0.17s | KE 51.5632 | drift +2.80% | fluid 39.8454 | solid 11.7178
  Impulse FP iterations last/mean/max 14/15.07/18
Step   800/2000   40.0% | t 40.000 | ETA 4m 4s | step 0.20s | KE 51.5604 | drift +2.79% | fluid 39.6472 | solid 11.9132
  Impulse FP iterations last/mean/max 16/15.04/18
Step   900/2000   45.0% | t 45.000 | ETA 3m 42s | step 0.18s | KE 51.6599 | drift +2.99% | fluid 39.7393 | solid 11.9206
  Impulse FP iterations last/mean/max 14/15.02/18
Step  1000/2000   50.0% | t 50.000 | ETA 3m 21s | step 0.17s | KE 51.5648 | drift +2.80% | fluid 39.6438 | solid 11.9210
  Impulse FP iterations last/mean/max 15/14.99/18
Step  1100/2000   55.0% | t 55.000 | ETA 3m 0s | step 0.18s | KE 51.5429 | drift +2.76% | fluid 39.8117 | solid 11.7312
  Impulse FP iterations last/mean/max 15/14.97/18
Step  1200/2000   60.0% | t 60.000 | ETA 2m 40s | step 0.18s | KE 51.5847 | drift +2.84% | fluid 39.7105 | solid 11.8742
  Impulse FP iterations last/mean/max 14/14.95/18
Step  1300/2000   65.0% | t 65.000 | ETA 2m 20s | step 0.19s | KE 51.5865 | drift +2.85% | fluid 39.6828 | solid 11.9037
  Impulse FP iterations last/mean/max 15/14.94/18
Step  1400/2000   70.0% | t 70.000 | ETA 2m 0s | step 0.21s | KE 51.6072 | drift +2.89% | fluid 39.7512 | solid 11.8560
  Impulse FP iterations last/mean/max 14/14.93/18
Step  1500/2000   75.0% | t 75.000 | ETA 1m 39s | step 0.20s | KE 51.5843 | drift +2.84% | fluid 39.6221 | solid 11.9623
  Impulse FP iterations last/mean/max 15/14.92/18
Step  1600/2000   80.0% | t 80.000 | ETA 1m 19s | step 0.20s | KE 51.5471 | drift +2.77% | fluid 39.8670 | solid 11.6801
  Impulse FP iterations last/mean/max 15/14.92/18
Step  1700/2000   85.0% | t 85.000 | ETA 59s | step 0.20s | KE 51.5543 | drift +2.78% | fluid 39.6393 | solid 11.9150
  Impulse FP iterations last/mean/max 16/14.91/18
Step  1800/2000   90.0% | t 90.000 | ETA 39s | step 0.18s | KE 51.6454 | drift +2.96% | fluid 39.7249 | solid 11.9205
  Impulse FP iterations last/mean/max 14/14.91/18
Step  1900/2000   95.0% | t 95.000 | ETA 19s | step 0.18s | KE 51.5690 | drift +2.81% | fluid 39.6839 | solid 11.8851
  Impulse FP iterations last/mean/max 15/14.91/18
Solver finished successfully - good job!
Results saved successfully.

================== Run summary ==================
  Bodies:            2
  Triangles / nodes: 256 / 516
  Timesteps:         2000  (dt = 0.05)
  Simulated time:    0 -> 100
  First-step setup:  0.446 s
  Mean time/step:    0.1976 s  (excl. first step)
  Total wall time:   6m 35s
  Impulse FP iters last/mean/max: 15 / 14.900 / 18
  Approx impulse solves/step:     14.901
  Impulse start cache hits/direct: 1999 / 1
  Impulse global drift P/H:       2.542278e-8 / 6.562117e-2
  Impulse per-body max drift P/H: 3.516451e-8 / 4.822837e-3
  CPU cores:         256 available, 8 Rayon worker thread(s)
  Started:           2026-06-24 01:58:41
  Finished:          2026-06-24 02:05:16
  Output file:       /work/e643/e643/shared/multi_ellip/studies/two_body_paper_sweeps/runs/spheroid_1_0p7_0p7/spheroid_1_0p7_0p7_rho0p1_E1p5_sep3_run05_impulse_noproj/multiple_body_complete.dat
================================================
