
================ Simulation setup ================
  Run label:         /work/e643/e643/shared/multi_ellip/studies/two_body_paper_sweeps/runs/ellipsoid_1_0p8_0p6/ellipsoid_1_0p8_0p6_rho0p03_E11_sep3_run03_impulse_noproj/
  Started:           2026-06-24 02:49:20
  Input file:        /work/e643/e643/shared/multi_ellip/studies/two_body_paper_sweeps/runs/ellipsoid_1_0p8_0p6/ellipsoid_1_0p8_0p6_rho0p03_E11_sep3_run03_impulse_noproj/input.txt
  Output file:       /work/e643/e643/shared/multi_ellip/studies/two_body_paper_sweeps/runs/ellipsoid_1_0p8_0p6/ellipsoid_1_0p8_0p6_rho0p03_E11_sep3_run03_impulse_noproj/multiple_body_complete.dat
  Bodies:            2
  Fluid density:     1
  Mesh:              ndiv 2 -> 256 triangles / 516 nodes
  Simulated time:    0 -> 100  (dt = 0.05, ~2000 steps)
  Output cadence:    every 1 step(s)
  Output rows:       ~2001
  Progress cadence:  every 100 step(s)
  CPU cores:         256 available, 8 Rayon worker thread(s)
  Strong coupling:   disabled
  Impulse scheme:    enabled
  Hamiltonian step:  disabled
  Hamiltonian midpt: disabled
  Variational step:  disabled
  Energy projection: disabled
  Projection particular metric: Euclidean
  Fluid KE gradient: disabled  (eps = 0.001, scale = 1, linear = 1, angular = 1)
  Fluid KE discrete gradient: disabled
  Impulse pair metric correction: disabled  (mode = pair discrete-gradient, cutoff = all pairs, inner/outer = 0/0, eps = 0.001, linear scale = 1, angular scale = 0)
  Impulse metric correction: disabled  (internal load constraint = disabled)
  Impulse variational defect probe: disabled
  Impulse quadratic pressure: disabled  (scale = 1)
  Added-mass stab:   disabled
  Exact BEM geometry: disabled
  Exact singular BEM: disabled
  Legacy singular SLP diagnostic: disabled
  Phi-dot blend:     0 (off)

  Solver guidance:
    - Strong coupling: use for stiff close-coupled runs; slower but more implicit.
    - Impulse scheme: use when impulse/momentum conservation or KE drift is the focus. Recommended.
    - Added-mass stab: use for higher mesh counts (ndiv > 3) to preserve stability - deprecated.
================================================
Solver starting - good luck!

Initial state:
  Body  1
    density:          0.030000
    shape axes ratio: (1.000000, 0.800000, 0.600000)
    initial KE ratio: 11.000000
    position:         (-1.500000, 0.000000, 0.000000)
    velocity:         (-0.808289, 0.089833, -0.767327)
    angular velocity: (-5.763970, 2.177942, 1.229485)
    orientation:      (w=0.409410, i=0.167278, j=-0.507286, k=-0.739637)
  Body  2
    density:          0.030000
    shape axes ratio: (1.000000, 0.800000, 0.600000)
    initial KE ratio: 11.000000
    position:         (1.500000, 0.000000, 0.000000)
    velocity:         (-0.936868, 0.104123, -0.889390)
    angular velocity: (0.866206, -5.221182, -3.386350)
    orientation:      (w=0.883419, i=0.268853, j=0.360049, k=0.132869)

Preparing first step: implicit scheme, no bootstrap passes required.
First step may take longer than later steps.

First step completed in 0.453 s.

Step   100/2000    5.0% | t 5.000 | ETA 13m 51s | step 0.44s | KE 17.4437 | drift +17.84% | fluid 12.7322 | solid 4.7115
  Impulse FP iterations last/mean/max 30/29.98/30
Step   200/2000   10.0% | t 10.000 | ETA 12m 44s | step 0.42s | KE 15.4549 | drift +4.40% | fluid 11.9234 | solid 3.5315
  Impulse FP iterations last/mean/max 30/29.86/30
Step   300/2000   15.0% | t 15.000 | ETA 11m 54s | step 0.39s | KE 15.4043 | drift +4.06% | fluid 11.0233 | solid 4.3810
  Impulse FP iterations last/mean/max 30/29.84/30
Step   400/2000   20.0% | t 20.000 | ETA 11m 6s | step 0.42s | KE 15.3167 | drift +3.47% | fluid 11.4324 | solid 3.8842
  Impulse FP iterations last/mean/max 30/29.82/30
Step   500/2000   25.0% | t 25.000 | ETA 10m 22s | step 0.41s | KE 15.3766 | drift +3.88% | fluid 12.0133 | solid 3.3633
  Impulse FP iterations last/mean/max 30/29.81/30
Step   600/2000   30.0% | t 30.000 | ETA 9m 39s | step 0.41s | KE 15.4447 | drift +4.34% | fluid 11.6608 | solid 3.7839
  Impulse FP iterations last/mean/max 29/29.81/30
Step   700/2000   35.0% | t 35.000 | ETA 8m 57s | step 0.40s | KE 15.4203 | drift +4.17% | fluid 11.8510 | solid 3.5692
  Impulse FP iterations last/mean/max 30/29.81/30
Step   800/2000   40.0% | t 40.000 | ETA 8m 14s | step 0.37s | KE 15.4193 | drift +4.16% | fluid 11.2866 | solid 4.1327
  Impulse FP iterations last/mean/max 28/29.80/30
Step   900/2000   45.0% | t 45.000 | ETA 7m 32s | step 0.36s | KE 15.3113 | drift +3.43% | fluid 11.1315 | solid 4.1798
  Impulse FP iterations last/mean/max 26/29.78/30
Step  1000/2000   50.0% | t 50.000 | ETA 6m 51s | step 0.42s | KE 15.4768 | drift +4.55% | fluid 12.1644 | solid 3.3123
  Impulse FP iterations last/mean/max 30/29.77/30
Step  1100/2000   55.0% | t 55.000 | ETA 6m 9s | step 0.43s | KE 15.2967 | drift +3.34% | fluid 11.5175 | solid 3.7792
  Impulse FP iterations last/mean/max 30/29.76/30
Step  1200/2000   60.0% | t 60.000 | ETA 5m 28s | step 0.40s | KE 15.3244 | drift +3.52% | fluid 11.2283 | solid 4.0961
  Impulse FP iterations last/mean/max 30/29.75/30
Step  1300/2000   65.0% | t 65.000 | ETA 4m 46s | step 0.41s | KE 15.3639 | drift +3.79% | fluid 11.5215 | solid 3.8424
  Impulse FP iterations last/mean/max 30/29.72/30
Step  1400/2000   70.0% | t 70.000 | ETA 4m 5s | step 0.40s | KE 15.4343 | drift +4.26% | fluid 11.7691 | solid 3.6652
  Impulse FP iterations last/mean/max 30/29.71/30
Step  1500/2000   75.0% | t 75.000 | ETA 3m 24s | step 0.38s | KE 15.4085 | drift +4.09% | fluid 11.3602 | solid 4.0484
  Impulse FP iterations last/mean/max 29/29.69/30
Step  1600/2000   80.0% | t 80.000 | ETA 2m 43s | step 0.36s | KE 15.3051 | drift +3.39% | fluid 11.4189 | solid 3.8862
  Impulse FP iterations last/mean/max 29/29.68/30
Step  1700/2000   85.0% | t 85.000 | ETA 2m 1s | step 0.35s | KE 15.3519 | drift +3.71% | fluid 11.7066 | solid 3.6453
  Impulse FP iterations last/mean/max 30/29.67/30
Step  1800/2000   90.0% | t 90.000 | ETA 1m 20s | step 0.35s | KE 15.4089 | drift +4.09% | fluid 11.7903 | solid 3.6186
  Impulse FP iterations last/mean/max 30/29.67/30
Step  1900/2000   95.0% | t 95.000 | ETA 40s | step 0.38s | KE 15.4056 | drift +4.07% | fluid 11.7320 | solid 3.6736
  Impulse FP iterations last/mean/max 30/29.68/30
Solver finished successfully - good job!
Results saved successfully.

================== Run summary ==================
  Bodies:            2
  Triangles / nodes: 256 / 516
  Timesteps:         2000  (dt = 0.05)
  Simulated time:    0 -> 100
  First-step setup:  0.453 s
  Mean time/step:    0.3992 s  (excl. first step)
  Total wall time:   13m 18s
  Impulse FP iters last/mean/max: 30 / 29.675 / 30
  Approx impulse solves/step:     29.675
  Impulse start cache hits/direct: 1999 / 1
  Impulse global drift P/H:       1.537228e-1 / 2.201665e0
  Impulse per-body max drift P/H: 3.194071e-1 / 8.155297e-1
  CPU cores:         256 available, 8 Rayon worker thread(s)
  Started:           2026-06-24 02:49:20
  Finished:          2026-06-24 03:02:39
  Output file:       /work/e643/e643/shared/multi_ellip/studies/two_body_paper_sweeps/runs/ellipsoid_1_0p8_0p6/ellipsoid_1_0p8_0p6_rho0p03_E11_sep3_run03_impulse_noproj/multiple_body_complete.dat
================================================
