
================ Simulation setup ================
  Run label:         /work/e643/e643/shared/multi_ellip/studies/departing_sphericity_sweep/runs/spheroid_oblate/homogeneous/spheroid_oblate_homogeneous_eps0p0001_rho1_E0p5_sep8_run05_impulse_noproj/
  Started:           2026-06-24 02:23:12
  Input file:        /work/e643/e643/shared/multi_ellip/studies/departing_sphericity_sweep/runs/spheroid_oblate/homogeneous/spheroid_oblate_homogeneous_eps0p0001_rho1_E0p5_sep8_run05_impulse_noproj/input.txt
  Output file:       /work/e643/e643/shared/multi_ellip/studies/departing_sphericity_sweep/runs/spheroid_oblate/homogeneous/spheroid_oblate_homogeneous_eps0p0001_rho1_E0p5_sep8_run05_impulse_noproj/multiple_body_complete.dat
  Bodies:            2
  Fluid density:     1
  Mesh:              ndiv 2 -> 256 triangles / 516 nodes
  Simulated time:    0 -> 100  (dt = 0.05, ~2000 steps)
  Output cadence:    every 1 step(s)
  Output rows:       ~2001
  Progress cadence:  every 100 step(s)
  CPU cores:         256 available, 8 Rayon worker thread(s)
  Strong coupling:   disabled
  Impulse scheme:    enabled
  Hamiltonian step:  disabled
  Hamiltonian midpt: disabled
  Variational step:  disabled
  Energy projection: disabled
  Projection particular metric: Euclidean
  Fluid KE gradient: disabled  (eps = 0.001, scale = 1, linear = 1, angular = 1)
  Fluid KE discrete gradient: disabled
  Impulse pair metric correction: disabled  (mode = pair discrete-gradient, cutoff = all pairs, inner/outer = 0/0, eps = 0.001, linear scale = 1, angular scale = 0)
  Impulse metric correction: disabled  (internal load constraint = disabled)
  Impulse variational defect probe: disabled
  Impulse quadratic pressure: disabled  (scale = 1)
  Added-mass stab:   disabled
  Exact BEM geometry: disabled
  Exact singular BEM: disabled
  Legacy singular SLP diagnostic: disabled
  Phi-dot blend:     0 (off)

  Solver guidance:
    - Strong coupling: use for stiff close-coupled runs; slower but more implicit.
    - Impulse scheme: use when impulse/momentum conservation or KE drift is the focus. Recommended.
    - Added-mass stab: use for higher mesh counts (ndiv > 3) to preserve stability - deprecated.
================================================
Solver starting - good luck!

Initial state:
  Body  1
    density:          1.000000
    shape axes ratio: (1.000000, 1.000000, 0.999700)
    initial KE ratio: 0.500000
    position:         (-4.000000, 0.000000, 0.000000)
    velocity:         (-3.641876, 1.677410, 3.937439)
    angular velocity: (-2.522601, -5.452043, -1.841230)
    orientation:      (w=0.562956, i=-0.509808, j=0.389323, k=-0.521156)
  Body  2
    density:          1.000000
    shape axes ratio: (1.000000, 1.000000, 0.999700)
    initial KE ratio: 0.500000
    position:         (4.000000, 0.000000, 0.000000)
    velocity:         (-3.642271, 1.677593, 3.937867)
    angular velocity: (-1.302062, 2.406802, -5.656002)
    orientation:      (w=0.439495, i=0.062966, j=0.206317, k=-0.871959)

Preparing first step: implicit scheme, no bootstrap passes required.
First step may take longer than later steps.

First step completed in 3.641 s.

Step   100/2000    5.0% | t 5.000 | ETA 2m 35s | step 0.08s | KE 272.1587 | drift +0.51% | fluid 72.3348 | solid 199.8239
  Impulse FP iterations last/mean/max 6/6.07/7
Step   200/2000   10.0% | t 10.000 | ETA 2m 27s | step 0.09s | KE 276.7352 | drift +2.20% | fluid 72.3330 | solid 204.4022
  Impulse FP iterations last/mean/max 7/6.12/7
Step   300/2000   15.0% | t 15.000 | ETA 2m 20s | step 0.09s | KE 284.5281 | drift +5.08% | fluid 72.3331 | solid 212.1950
  Impulse FP iterations last/mean/max 7/6.20/7
Step   400/2000   20.0% | t 20.000 | ETA 2m 14s | step 0.08s | KE 295.5524 | drift +9.15% | fluid 72.3335 | solid 223.2190
  Impulse FP iterations last/mean/max 6/6.28/7
Step   500/2000   25.0% | t 25.000 | ETA 2m 7s | step 0.09s | KE 309.8205 | drift +14.42% | fluid 72.3346 | solid 237.4859
  Impulse FP iterations last/mean/max 7/6.35/7
Step   600/2000   30.0% | t 30.000 | ETA 2m 0s | step 0.10s | KE 327.3358 | drift +20.88% | fluid 72.3340 | solid 255.0018
  Impulse FP iterations last/mean/max 7/6.42/7
Step   700/2000   35.0% | t 35.000 | ETA 1m 52s | step 0.10s | KE 348.0940 | drift +28.55% | fluid 72.3352 | solid 275.7588
  Impulse FP iterations last/mean/max 7/6.47/7
Step   800/2000   40.0% | t 40.000 | ETA 1m 44s | step 0.09s | KE 372.0873 | drift +37.41% | fluid 72.3329 | solid 299.7544
  Impulse FP iterations last/mean/max 7/6.52/7
Step   900/2000   45.0% | t 45.000 | ETA 1m 36s | step 0.09s | KE 399.3019 | drift +47.46% | fluid 72.3354 | solid 326.9666
  Impulse FP iterations last/mean/max 7/6.57/7
Step  1000/2000   50.0% | t 50.000 | ETA 1m 28s | step 0.10s | KE 429.7326 | drift +58.70% | fluid 72.3324 | solid 357.4002
  Impulse FP iterations last/mean/max 7/6.61/7
Step  1100/2000   55.0% | t 55.000 | ETA 1m 19s | step 0.10s | KE 463.3655 | drift +71.12% | fluid 72.3346 | solid 391.0309
  Impulse FP iterations last/mean/max 7/6.64/7
Step  1200/2000   60.0% | t 60.000 | ETA 1m 11s | step 0.09s | KE 500.1995 | drift +84.72% | fluid 72.3328 | solid 427.8667
  Impulse FP iterations last/mean/max 7/6.67/7
Step  1300/2000   65.0% | t 65.000 | ETA 1m 2s | step 0.09s | KE 540.2241 | drift +99.50% | fluid 72.3328 | solid 467.8914
  Impulse FP iterations last/mean/max 7/6.70/7
Step  1400/2000   70.0% | t 70.000 | ETA 53s | step 0.09s | KE 583.4361 | drift +115.46% | fluid 72.3338 | solid 511.1023
  Impulse FP iterations last/mean/max 7/6.72/7
Step  1500/2000   75.0% | t 75.000 | ETA 44s | step 0.09s | KE 629.8348 | drift +132.60% | fluid 72.3329 | solid 557.5018
  Impulse FP iterations last/mean/max 7/6.74/7
Step  1600/2000   80.0% | t 80.000 | ETA 35s | step 0.08s | KE 679.4090 | drift +150.90% | fluid 72.3359 | solid 607.0731
  Impulse FP iterations last/mean/max 7/6.75/7
Step  1700/2000   85.0% | t 85.000 | ETA 26s | step 0.07s | KE 732.1671 | drift +170.39% | fluid 72.3350 | solid 659.8321
  Impulse FP iterations last/mean/max 7/6.77/7
Step  1800/2000   90.0% | t 90.000 | ETA 17s | step 0.07s | KE 788.0951 | drift +191.04% | fluid 72.3367 | solid 715.7583
  Impulse FP iterations last/mean/max 7/6.78/7
Step  1900/2000   95.0% | t 95.000 | ETA 8s | step 0.06s | KE 847.2009 | drift +212.87% | fluid 72.3357 | solid 774.8653
  Impulse FP iterations last/mean/max 7/6.79/7
Solver finished successfully - good job!
Results saved successfully.

================== Run summary ==================
  Bodies:            2
  Triangles / nodes: 256 / 516
  Timesteps:         2000  (dt = 0.05)
  Simulated time:    0 -> 100
  First-step setup:  3.641 s
  Mean time/step:    0.0849 s  (excl. first step)
  Total wall time:   2m 53s
  Impulse FP iters last/mean/max: 7 / 6.803 / 7
  Approx impulse solves/step:     6.804
  Impulse start cache hits/direct: 1999 / 1
  Impulse global drift P/H:       4.971740e-9 / 6.758777e-2
  Impulse per-body max drift P/H: 7.788783e-9 / 6.722880e-3
  CPU cores:         256 available, 8 Rayon worker thread(s)
  Started:           2026-06-24 02:23:12
  Finished:          2026-06-24 02:26:07
  Output file:       /work/e643/e643/shared/multi_ellip/studies/departing_sphericity_sweep/runs/spheroid_oblate/homogeneous/spheroid_oblate_homogeneous_eps0p0001_rho1_E0p5_sep8_run05_impulse_noproj/multiple_body_complete.dat
================================================
