
================ Simulation setup ================
  Run label:         /work/e643/e643/shared/multi_ellip/studies/two_body_paper_sweeps/runs/ellipsoid_1_0p8_0p6/ellipsoid_1_0p8_0p6_rho0p3_E11_sep5_run02_impulse_noproj/
  Started:           2026-06-22 19:47:30
  Input file:        /work/e643/e643/shared/multi_ellip/studies/two_body_paper_sweeps/runs/ellipsoid_1_0p8_0p6/ellipsoid_1_0p8_0p6_rho0p3_E11_sep5_run02_impulse_noproj/input.txt
  Output file:       /work/e643/e643/shared/multi_ellip/studies/two_body_paper_sweeps/runs/ellipsoid_1_0p8_0p6/ellipsoid_1_0p8_0p6_rho0p3_E11_sep5_run02_impulse_noproj/multiple_body_complete.dat
  Bodies:            2
  Fluid density:     1
  Mesh:              ndiv 2 -> 256 triangles / 516 nodes
  Simulated time:    0 -> 100  (dt = 0.05, ~2000 steps)
  Output cadence:    every 1 step(s)
  Output rows:       ~2001
  Progress cadence:  every 100 step(s)
  CPU cores:         256 available, 8 Rayon worker thread(s)
  Strong coupling:   disabled
  Impulse scheme:    enabled
  Hamiltonian step:  disabled
  Hamiltonian midpt: disabled
  Variational step:  disabled
  Energy projection: disabled
  Projection particular metric: Euclidean
  Fluid KE gradient: disabled  (eps = 0.001, scale = 1, linear = 1, angular = 1)
  Fluid KE discrete gradient: disabled
  Impulse pair metric correction: disabled  (mode = pair discrete-gradient, cutoff = all pairs, inner/outer = 0/0, eps = 0.001, linear scale = 1, angular scale = 0)
  Impulse metric correction: disabled  (internal load constraint = disabled)
  Impulse variational defect probe: disabled
  Impulse quadratic pressure: disabled  (scale = 1)
  Added-mass stab:   disabled
  Exact BEM geometry: disabled
  Exact singular BEM: disabled
  Legacy singular SLP diagnostic: disabled
  Phi-dot blend:     0 (off)

  Solver guidance:
    - Strong coupling: use for stiff close-coupled runs; slower but more implicit.
    - Impulse scheme: use when impulse/momentum conservation or KE drift is the focus. Recommended.
    - Added-mass stab: use for higher mesh counts (ndiv > 3) to preserve stability - deprecated.
================================================
Solver starting - good luck!

Initial state:
  Body  1
    density:          0.300000
    shape axes ratio: (1.000000, 0.800000, 0.600000)
    initial KE ratio: 11.000000
    position:         (-2.500000, 0.000000, 0.000000)
    velocity:         (0.034658, -1.097795, -0.704412)
    angular velocity: (-3.385604, 0.099383, 5.292091)
    orientation:      (w=0.577350, i=0.577350, j=0.577350, k=0.000000)
  Body  2
    density:          0.300000
    shape axes ratio: (1.000000, 0.800000, 0.600000)
    initial KE ratio: 11.000000
    position:         (2.500000, 0.000000, 0.000000)
    velocity:         (0.033589, -1.063941, -0.682690)
    angular velocity: (0.183989, 6.211434, -0.928793)
    orientation:      (w=0.577350, i=-0.577350, j=0.000000, k=0.577350)

Preparing first step: implicit scheme, no bootstrap passes required.
First step may take longer than later steps.

First step completed in 0.342 s.

Step   100/2000    5.0% | t 5.000 | ETA 6m 6s | step 0.19s | KE 31.3646 | drift +0.27% | fluid 8.4872 | solid 22.8775
  Impulse FP iterations last/mean/max 14/14.14/16
Step   200/2000   10.0% | t 10.000 | ETA 5m 47s | step 0.21s | KE 31.3426 | drift +0.20% | fluid 9.6755 | solid 21.6671
  Impulse FP iterations last/mean/max 14/14.10/16
Step   300/2000   15.0% | t 15.000 | ETA 5m 29s | step 0.18s | KE 31.1757 | drift -0.33% | fluid 8.9328 | solid 22.2429
  Impulse FP iterations last/mean/max 14/14.15/16
Step   400/2000   20.0% | t 20.000 | ETA 5m 10s | step 0.18s | KE 30.8679 | drift -1.31% | fluid 9.8295 | solid 21.0384
  Impulse FP iterations last/mean/max 14/14.14/16
Step   500/2000   25.0% | t 25.000 | ETA 4m 51s | step 0.20s | KE 30.7972 | drift -1.54% | fluid 7.9834 | solid 22.8138
  Impulse FP iterations last/mean/max 14/14.13/16
Step   600/2000   30.0% | t 30.000 | ETA 4m 31s | step 0.20s | KE 31.0934 | drift -0.59% | fluid 8.9227 | solid 22.1707
  Impulse FP iterations last/mean/max 14/14.10/16
Step   700/2000   35.0% | t 35.000 | ETA 4m 12s | step 0.18s | KE 30.8798 | drift -1.28% | fluid 8.9348 | solid 21.9450
  Impulse FP iterations last/mean/max 13/14.10/16
Step   800/2000   40.0% | t 40.000 | ETA 3m 51s | step 0.18s | KE 30.5484 | drift -2.34% | fluid 11.1969 | solid 19.3515
  Impulse FP iterations last/mean/max 14/14.05/16
Step   900/2000   45.0% | t 45.000 | ETA 3m 32s | step 0.18s | KE 30.4438 | drift -2.67% | fluid 10.7377 | solid 19.7061
  Impulse FP iterations last/mean/max 14/14.02/16
Step  1000/2000   50.0% | t 50.000 | ETA 3m 12s | step 0.19s | KE 30.4137 | drift -2.77% | fluid 10.9719 | solid 19.4417
  Impulse FP iterations last/mean/max 14/14.00/16
Step  1100/2000   55.0% | t 55.000 | ETA 2m 53s | step 0.18s | KE 30.2742 | drift -3.21% | fluid 11.4933 | solid 18.7809
  Impulse FP iterations last/mean/max 14/13.99/16
Step  1200/2000   60.0% | t 60.000 | ETA 2m 33s | step 0.19s | KE 29.9998 | drift -4.09% | fluid 11.0371 | solid 18.9627
  Impulse FP iterations last/mean/max 14/13.99/16
Step  1300/2000   65.0% | t 65.000 | ETA 2m 14s | step 0.20s | KE 29.8739 | drift -4.49% | fluid 11.6237 | solid 18.2502
  Impulse FP iterations last/mean/max 14/13.98/16
Step  1400/2000   70.0% | t 70.000 | ETA 1m 55s | step 0.18s | KE 30.0643 | drift -3.88% | fluid 10.4515 | solid 19.6128
  Impulse FP iterations last/mean/max 13/13.97/16
Step  1500/2000   75.0% | t 75.000 | ETA 1m 36s | step 0.18s | KE 30.3006 | drift -3.13% | fluid 10.4924 | solid 19.8082
  Impulse FP iterations last/mean/max 14/13.97/16
Step  1600/2000   80.0% | t 80.000 | ETA 1m 16s | step 0.20s | KE 30.3830 | drift -2.86% | fluid 10.5988 | solid 19.7841
  Impulse FP iterations last/mean/max 15/13.96/16
Step  1700/2000   85.0% | t 85.000 | ETA 57s | step 0.18s | KE 30.4087 | drift -2.78% | fluid 11.3087 | solid 19.1000
  Impulse FP iterations last/mean/max 14/13.96/16
Step  1800/2000   90.0% | t 90.000 | ETA 38s | step 0.18s | KE 30.5284 | drift -2.40% | fluid 9.7566 | solid 20.7718
  Impulse FP iterations last/mean/max 14/13.95/16
Step  1900/2000   95.0% | t 95.000 | ETA 19s | step 0.21s | KE 30.6282 | drift -2.08% | fluid 11.3885 | solid 19.2397
  Impulse FP iterations last/mean/max 15/13.95/16
Solver finished successfully - good job!
Results saved successfully.

================== Run summary ==================
  Bodies:            2
  Triangles / nodes: 256 / 516
  Timesteps:         2000  (dt = 0.05)
  Simulated time:    0 -> 100
  First-step setup:  0.342 s
  Mean time/step:    0.1907 s  (excl. first step)
  Total wall time:   6m 21s
  Impulse FP iters last/mean/max: 13 / 13.941 / 16
  Approx impulse solves/step:     13.942
  Impulse start cache hits/direct: 1999 / 1
  Impulse global drift P/H:       3.029237e-8 / 2.089634e-2
  Impulse per-body max drift P/H: 3.870036e-8 / 7.990554e-3
  CPU cores:         256 available, 8 Rayon worker thread(s)
  Started:           2026-06-22 19:47:30
  Finished:          2026-06-22 19:53:52
  Output file:       /work/e643/e643/shared/multi_ellip/studies/two_body_paper_sweeps/runs/ellipsoid_1_0p8_0p6/ellipsoid_1_0p8_0p6_rho0p3_E11_sep5_run02_impulse_noproj/multiple_body_complete.dat
================================================
