
================ Simulation setup ================
  Run label:         /work/e643/e643/shared/multi_ellip/studies/departing_sphericity_sweep/runs/spheroid_prolate/homogeneous/spheroid_prolate_homogeneous_eps0p0001_rho1_E0p5_sep8_run01_impulse_noproj/
  Started:           2026-06-24 02:23:10
  Input file:        /work/e643/e643/shared/multi_ellip/studies/departing_sphericity_sweep/runs/spheroid_prolate/homogeneous/spheroid_prolate_homogeneous_eps0p0001_rho1_E0p5_sep8_run01_impulse_noproj/input.txt
  Output file:       /work/e643/e643/shared/multi_ellip/studies/departing_sphericity_sweep/runs/spheroid_prolate/homogeneous/spheroid_prolate_homogeneous_eps0p0001_rho1_E0p5_sep8_run01_impulse_noproj/multiple_body_complete.dat
  Bodies:            2
  Fluid density:     1
  Mesh:              ndiv 2 -> 256 triangles / 516 nodes
  Simulated time:    0 -> 100  (dt = 0.05, ~2000 steps)
  Output cadence:    every 1 step(s)
  Output rows:       ~2001
  Progress cadence:  every 100 step(s)
  CPU cores:         256 available, 8 Rayon worker thread(s)
  Strong coupling:   disabled
  Impulse scheme:    enabled
  Hamiltonian step:  disabled
  Hamiltonian midpt: disabled
  Variational step:  disabled
  Energy projection: disabled
  Projection particular metric: Euclidean
  Fluid KE gradient: disabled  (eps = 0.001, scale = 1, linear = 1, angular = 1)
  Fluid KE discrete gradient: disabled
  Impulse pair metric correction: disabled  (mode = pair discrete-gradient, cutoff = all pairs, inner/outer = 0/0, eps = 0.001, linear scale = 1, angular scale = 0)
  Impulse metric correction: disabled  (internal load constraint = disabled)
  Impulse variational defect probe: disabled
  Impulse quadratic pressure: disabled  (scale = 1)
  Added-mass stab:   disabled
  Exact BEM geometry: disabled
  Exact singular BEM: disabled
  Legacy singular SLP diagnostic: disabled
  Phi-dot blend:     0 (off)

  Solver guidance:
    - Strong coupling: use for stiff close-coupled runs; slower but more implicit.
    - Impulse scheme: use when impulse/momentum conservation or KE drift is the focus. Recommended.
    - Added-mass stab: use for higher mesh counts (ndiv > 3) to preserve stability - deprecated.
================================================
Solver starting - good luck!

Initial state:
  Body  1
    density:          1.000000
    shape axes ratio: (1.000000, 0.999700, 0.999700)
    initial KE ratio: 0.500000
    position:         (-4.000000, 0.000000, 0.000000)
    velocity:         (1.832299, 0.267439, -5.306038)
    angular velocity: (3.544256, 3.171776, -4.105667)
    orientation:      (w=0.471020, i=0.419523, j=-0.474566, k=0.613944)
  Body  2
    density:          1.000000
    shape axes ratio: (1.000000, 0.999700, 0.999700)
    initial KE ratio: 0.500000
    position:         (4.000000, 0.000000, 0.000000)
    velocity:         (1.832188, 0.267423, -5.305719)
    angular velocity: (-5.328670, -2.181241, -2.515132)
    orientation:      (w=0.955096, i=0.011974, j=0.122692, k=-0.269434)

Preparing first step: implicit scheme, no bootstrap passes required.
First step may take longer than later steps.

First step completed in 8.839 s.

Step   100/2000    5.0% | t 5.000 | ETA 2m 36s | step 0.09s | KE 270.9073 | drift -0.02% | fluid 72.5317 | solid 198.3756
  Impulse FP iterations last/mean/max 7/6.12/7
Step   200/2000   10.0% | t 10.000 | ETA 2m 22s | step 0.07s | KE 272.0863 | drift +0.41% | fluid 72.5309 | solid 199.5554
  Impulse FP iterations last/mean/max 6/6.13/7
Step   300/2000   15.0% | t 15.000 | ETA 2m 13s | step 0.07s | KE 274.5044 | drift +1.31% | fluid 72.5291 | solid 201.9752
  Impulse FP iterations last/mean/max 6/6.15/7
Step   400/2000   20.0% | t 20.000 | ETA 2m 9s | step 0.09s | KE 278.1678 | drift +2.66% | fluid 72.5309 | solid 205.6369
  Impulse FP iterations last/mean/max 7/6.18/7
Step   500/2000   25.0% | t 25.000 | ETA 2m 3s | step 0.09s | KE 283.0822 | drift +4.47% | fluid 72.5292 | solid 210.5530
  Impulse FP iterations last/mean/max 6/6.21/7
Step   600/2000   30.0% | t 30.000 | ETA 1m 57s | step 0.10s | KE 289.2536 | drift +6.75% | fluid 72.5294 | solid 216.7242
  Impulse FP iterations last/mean/max 7/6.25/7
Step   700/2000   35.0% | t 35.000 | ETA 1m 50s | step 0.09s | KE 296.6871 | drift +9.49% | fluid 72.5313 | solid 224.1559
  Impulse FP iterations last/mean/max 6/6.28/7
Step   800/2000   40.0% | t 40.000 | ETA 1m 43s | step 0.10s | KE 305.3891 | drift +12.71% | fluid 72.5296 | solid 232.8594
  Impulse FP iterations last/mean/max 7/6.32/7
Step   900/2000   45.0% | t 45.000 | ETA 1m 35s | step 0.10s | KE 315.3642 | drift +16.39% | fluid 72.5283 | solid 242.8359
  Impulse FP iterations last/mean/max 7/6.36/7
Step  1000/2000   50.0% | t 50.000 | ETA 1m 27s | step 0.09s | KE 326.6191 | drift +20.54% | fluid 72.5271 | solid 254.0920
  Impulse FP iterations last/mean/max 6/6.40/7
Step  1100/2000   55.0% | t 55.000 | ETA 1m 19s | step 0.08s | KE 339.1581 | drift +25.17% | fluid 72.5274 | solid 266.6307
  Impulse FP iterations last/mean/max 6/6.44/7
Step  1200/2000   60.0% | t 60.000 | ETA 1m 11s | step 0.10s | KE 352.9859 | drift +30.27% | fluid 72.5347 | solid 280.4512
  Impulse FP iterations last/mean/max 7/6.48/7
Step  1300/2000   65.0% | t 65.000 | ETA 1m 2s | step 0.09s | KE 368.1112 | drift +35.85% | fluid 72.5333 | solid 295.5778
  Impulse FP iterations last/mean/max 7/6.51/7
Step  1400/2000   70.0% | t 70.000 | ETA 54s | step 0.10s | KE 384.5387 | drift +41.92% | fluid 72.5311 | solid 312.0076
  Impulse FP iterations last/mean/max 7/6.54/7
Step  1500/2000   75.0% | t 75.000 | ETA 45s | step 0.10s | KE 402.2725 | drift +48.46% | fluid 72.5263 | solid 329.7462
  Impulse FP iterations last/mean/max 7/6.57/7
Step  1600/2000   80.0% | t 80.000 | ETA 36s | step 0.09s | KE 421.3183 | drift +55.49% | fluid 72.5301 | solid 348.7882
  Impulse FP iterations last/mean/max 7/6.59/7
Step  1700/2000   85.0% | t 85.000 | ETA 27s | step 0.09s | KE 441.6828 | drift +63.01% | fluid 72.5273 | solid 369.1555
  Impulse FP iterations last/mean/max 7/6.62/7
Step  1800/2000   90.0% | t 90.000 | ETA 18s | step 0.08s | KE 463.3699 | drift +71.01% | fluid 72.5350 | solid 390.8349
  Impulse FP iterations last/mean/max 7/6.64/7
Step  1900/2000   95.0% | t 95.000 | ETA 8s | step 0.07s | KE 486.3917 | drift +79.51% | fluid 72.5313 | solid 413.8604
  Impulse FP iterations last/mean/max 7/6.65/7
Solver finished successfully - good job!
Results saved successfully.

================== Run summary ==================
  Bodies:            2
  Triangles / nodes: 256 / 516
  Timesteps:         2000  (dt = 0.05)
  Simulated time:    0 -> 100
  First-step setup:  8.839 s
  Mean time/step:    0.0885 s  (excl. first step)
  Total wall time:   3m 5s
  Impulse FP iters last/mean/max: 7 / 6.670 / 7
  Approx impulse solves/step:     6.671
  Impulse start cache hits/direct: 1999 / 1
  Impulse global drift P/H:       7.680768e-9 / 4.526587e-2
  Impulse per-body max drift P/H: 1.369396e-8 / 2.917808e-3
  CPU cores:         256 available, 8 Rayon worker thread(s)
  Started:           2026-06-24 02:23:10
  Finished:          2026-06-24 02:26:16
  Output file:       /work/e643/e643/shared/multi_ellip/studies/departing_sphericity_sweep/runs/spheroid_prolate/homogeneous/spheroid_prolate_homogeneous_eps0p0001_rho1_E0p5_sep8_run01_impulse_noproj/multiple_body_complete.dat
================================================
