
================ Simulation setup ================
  Run label:         /work/e643/e643/shared/multi_ellip/studies/two_body_paper_sweeps/runs/ellipsoid_1_0p8_0p6/ellipsoid_1_0p8_0p6_rho0p3_E1p5_sep11_run05_impulse_noproj/
  Started:           2026-06-24 01:51:05
  Input file:        /work/e643/e643/shared/multi_ellip/studies/two_body_paper_sweeps/runs/ellipsoid_1_0p8_0p6/ellipsoid_1_0p8_0p6_rho0p3_E1p5_sep11_run05_impulse_noproj/input.txt
  Output file:       /work/e643/e643/shared/multi_ellip/studies/two_body_paper_sweeps/runs/ellipsoid_1_0p8_0p6/ellipsoid_1_0p8_0p6_rho0p3_E1p5_sep11_run05_impulse_noproj/multiple_body_complete.dat
  Bodies:            2
  Fluid density:     1
  Mesh:              ndiv 2 -> 256 triangles / 516 nodes
  Simulated time:    0 -> 100  (dt = 0.05, ~2000 steps)
  Output cadence:    every 1 step(s)
  Output rows:       ~2001
  Progress cadence:  every 100 step(s)
  CPU cores:         256 available, 8 Rayon worker thread(s)
  Strong coupling:   disabled
  Impulse scheme:    enabled
  Hamiltonian step:  disabled
  Hamiltonian midpt: disabled
  Variational step:  disabled
  Energy projection: disabled
  Projection particular metric: Euclidean
  Fluid KE gradient: disabled  (eps = 0.001, scale = 1, linear = 1, angular = 1)
  Fluid KE discrete gradient: disabled
  Impulse pair metric correction: disabled  (mode = pair discrete-gradient, cutoff = all pairs, inner/outer = 0/0, eps = 0.001, linear scale = 1, angular scale = 0)
  Impulse metric correction: disabled  (internal load constraint = disabled)
  Impulse variational defect probe: disabled
  Impulse quadratic pressure: disabled  (scale = 1)
  Added-mass stab:   disabled
  Exact BEM geometry: disabled
  Exact singular BEM: disabled
  Legacy singular SLP diagnostic: disabled
  Phi-dot blend:     0 (off)

  Solver guidance:
    - Strong coupling: use for stiff close-coupled runs; slower but more implicit.
    - Impulse scheme: use when impulse/momentum conservation or KE drift is the focus. Recommended.
    - Added-mass stab: use for higher mesh counts (ndiv > 3) to preserve stability - deprecated.
================================================
Solver starting - good luck!

Initial state:
  Body  1
    density:          0.300000
    shape axes ratio: (1.000000, 0.800000, 0.600000)
    initial KE ratio: 1.500000
    position:         (-5.500000, 0.000000, 0.000000)
    velocity:         (2.270183, 2.018269, -2.192152)
    angular velocity: (0.390539, 0.672865, -6.234834)
    orientation:      (w=-0.078198, i=-0.906462, j=-0.413246, k=-0.037950)
  Body  2
    density:          0.300000
    shape axes ratio: (1.000000, 0.800000, 0.600000)
    initial KE ratio: 1.500000
    position:         (5.500000, 0.000000, 0.000000)
    velocity:         (1.778777, 1.581393, -1.717636)
    angular velocity: (-6.257383, 0.515453, -0.240595)
    orientation:      (w=-0.783440, i=-0.580719, j=0.220948, k=-0.012987)

Preparing first step: implicit scheme, no bootstrap passes required.
First step may take longer than later steps.

First step completed in 0.408 s.

Step   100/2000    5.0% | t 5.000 | ETA 6m 24s | step 0.23s | KE 68.7552 | drift +0.04% | fluid 34.3565 | solid 34.3988
  Impulse FP iterations last/mean/max 15/14.09/15
Step   200/2000   10.0% | t 10.000 | ETA 6m 0s | step 0.19s | KE 68.8680 | drift +0.20% | fluid 36.9674 | solid 31.9007
  Impulse FP iterations last/mean/max 14/14.11/15
Step   300/2000   15.0% | t 15.000 | ETA 5m 39s | step 0.20s | KE 68.8947 | drift +0.24% | fluid 34.4620 | solid 34.4327
  Impulse FP iterations last/mean/max 14/14.07/15
Step   400/2000   20.0% | t 20.000 | ETA 5m 18s | step 0.20s | KE 68.9592 | drift +0.33% | fluid 34.9278 | solid 34.0313
  Impulse FP iterations last/mean/max 14/14.06/16
Step   500/2000   25.0% | t 25.000 | ETA 4m 58s | step 0.20s | KE 68.9786 | drift +0.36% | fluid 36.6949 | solid 32.2838
  Impulse FP iterations last/mean/max 14/14.08/16
Step   600/2000   30.0% | t 30.000 | ETA 4m 38s | step 0.20s | KE 68.8885 | drift +0.23% | fluid 33.4863 | solid 35.4021
  Impulse FP iterations last/mean/max 14/14.09/16
Step   700/2000   35.0% | t 35.000 | ETA 4m 18s | step 0.19s | KE 68.8870 | drift +0.23% | fluid 33.7499 | solid 35.1372
  Impulse FP iterations last/mean/max 14/14.06/16
Step   800/2000   40.0% | t 40.000 | ETA 3m 58s | step 0.20s | KE 68.8857 | drift +0.23% | fluid 33.9260 | solid 34.9597
  Impulse FP iterations last/mean/max 14/14.05/16
Step   900/2000   45.0% | t 45.000 | ETA 3m 37s | step 0.19s | KE 68.9116 | drift +0.26% | fluid 32.7114 | solid 36.2002
  Impulse FP iterations last/mean/max 14/14.02/16
Step  1000/2000   50.0% | t 50.000 | ETA 3m 17s | step 0.20s | KE 68.8840 | drift +0.22% | fluid 31.9838 | solid 36.9002
  Impulse FP iterations last/mean/max 14/14.01/16
Step  1100/2000   55.0% | t 55.000 | ETA 2m 57s | step 0.20s | KE 68.9197 | drift +0.27% | fluid 34.6598 | solid 34.2599
  Impulse FP iterations last/mean/max 15/14.01/16
Step  1200/2000   60.0% | t 60.000 | ETA 2m 37s | step 0.20s | KE 68.8343 | drift +0.15% | fluid 33.8767 | solid 34.9576
  Impulse FP iterations last/mean/max 14/14.00/16
Step  1300/2000   65.0% | t 65.000 | ETA 2m 18s | step 0.20s | KE 68.6803 | drift -0.07% | fluid 35.2667 | solid 33.4135
  Impulse FP iterations last/mean/max 14/14.00/16
Step  1400/2000   70.0% | t 70.000 | ETA 1m 58s | step 0.20s | KE 68.8361 | drift +0.15% | fluid 37.2708 | solid 31.5652
  Impulse FP iterations last/mean/max 14/14.01/16
Step  1500/2000   75.0% | t 75.000 | ETA 1m 38s | step 0.18s | KE 68.8799 | drift +0.22% | fluid 33.8559 | solid 35.0239
  Impulse FP iterations last/mean/max 14/14.01/16
Step  1600/2000   80.0% | t 80.000 | ETA 1m 18s | step 0.20s | KE 68.8672 | drift +0.20% | fluid 34.4914 | solid 34.3758
  Impulse FP iterations last/mean/max 14/14.02/16
Step  1700/2000   85.0% | t 85.000 | ETA 59s | step 0.19s | KE 68.8808 | drift +0.22% | fluid 34.3818 | solid 34.4990
  Impulse FP iterations last/mean/max 14/14.02/16
Step  1800/2000   90.0% | t 90.000 | ETA 39s | step 0.21s | KE 68.7749 | drift +0.06% | fluid 33.5782 | solid 35.1968
  Impulse FP iterations last/mean/max 14/14.02/16
Step  1900/2000   95.0% | t 95.000 | ETA 19s | step 0.21s | KE 68.7708 | drift +0.06% | fluid 35.1346 | solid 33.6362
  Impulse FP iterations last/mean/max 15/14.01/16
Solver finished successfully - good job!
Results saved successfully.

================== Run summary ==================
  Bodies:            2
  Triangles / nodes: 256 / 516
  Timesteps:         2000  (dt = 0.05)
  Simulated time:    0 -> 100
  First-step setup:  0.408 s
  Mean time/step:    0.1974 s  (excl. first step)
  Total wall time:   6m 34s
  Impulse FP iters last/mean/max: 14 / 14.011 / 16
  Approx impulse solves/step:     14.011
  Impulse start cache hits/direct: 1999 / 1
  Impulse global drift P/H:       2.103903e-8 / 4.034184e-3
  Impulse per-body max drift P/H: 2.492666e-8 / 1.313739e-3
  CPU cores:         256 available, 8 Rayon worker thread(s)
  Started:           2026-06-24 01:51:05
  Finished:          2026-06-24 01:57:41
  Output file:       /work/e643/e643/shared/multi_ellip/studies/two_body_paper_sweeps/runs/ellipsoid_1_0p8_0p6/ellipsoid_1_0p8_0p6_rho0p3_E1p5_sep11_run05_impulse_noproj/multiple_body_complete.dat
================================================
