
================ Simulation setup ================
  Run label:         /work/e643/e643/shared/multi_ellip/studies/two_body_paper_sweeps/runs/ellipsoid_1_0p8_0p6/ellipsoid_1_0p8_0p6_rho10_E1p5_sep3_run05_impulse_noproj/
  Started:           2026-06-24 01:17:40
  Input file:        /work/e643/e643/shared/multi_ellip/studies/two_body_paper_sweeps/runs/ellipsoid_1_0p8_0p6/ellipsoid_1_0p8_0p6_rho10_E1p5_sep3_run05_impulse_noproj/input.txt
  Output file:       /work/e643/e643/shared/multi_ellip/studies/two_body_paper_sweeps/runs/ellipsoid_1_0p8_0p6/ellipsoid_1_0p8_0p6_rho10_E1p5_sep3_run05_impulse_noproj/multiple_body_complete.dat
  Bodies:            2
  Fluid density:     1
  Mesh:              ndiv 2 -> 256 triangles / 516 nodes
  Simulated time:    0 -> 100  (dt = 0.05, ~2000 steps)
  Output cadence:    every 1 step(s)
  Output rows:       ~2001
  Progress cadence:  every 100 step(s)
  CPU cores:         256 available, 8 Rayon worker thread(s)
  Strong coupling:   disabled
  Impulse scheme:    enabled
  Hamiltonian step:  disabled
  Hamiltonian midpt: disabled
  Variational step:  disabled
  Energy projection: disabled
  Projection particular metric: Euclidean
  Fluid KE gradient: disabled  (eps = 0.001, scale = 1, linear = 1, angular = 1)
  Fluid KE discrete gradient: disabled
  Impulse pair metric correction: disabled  (mode = pair discrete-gradient, cutoff = all pairs, inner/outer = 0/0, eps = 0.001, linear scale = 1, angular scale = 0)
  Impulse metric correction: disabled  (internal load constraint = disabled)
  Impulse variational defect probe: disabled
  Impulse quadratic pressure: disabled  (scale = 1)
  Added-mass stab:   disabled
  Exact BEM geometry: disabled
  Exact singular BEM: disabled
  Legacy singular SLP diagnostic: disabled
  Phi-dot blend:     0 (off)

  Solver guidance:
    - Strong coupling: use for stiff close-coupled runs; slower but more implicit.
    - Impulse scheme: use when impulse/momentum conservation or KE drift is the focus. Recommended.
    - Added-mass stab: use for higher mesh counts (ndiv > 3) to preserve stability - deprecated.
================================================
Solver starting - good luck!

Initial state:
  Body  1
    density:          10.000000
    shape axes ratio: (1.000000, 0.800000, 0.600000)
    initial KE ratio: 1.500000
    position:         (-1.500000, 0.000000, 0.000000)
    velocity:         (-0.472021, -3.030512, 1.451588)
    angular velocity: (2.387208, 5.397777, -2.154916)
    orientation:      (w=-0.309286, i=0.528805, j=0.770762, k=0.175026)
  Body  2
    density:          10.000000
    shape axes ratio: (1.000000, 0.800000, 0.600000)
    initial KE ratio: 1.500000
    position:         (1.500000, 0.000000, 0.000000)
    velocity:         (-0.495153, -3.179025, 1.522725)
    angular velocity: (2.606378, 2.765741, 5.003587)
    orientation:      (w=0.861326, i=-0.236694, j=0.408334, k=-0.188031)

Preparing first step: implicit scheme, no bootstrap passes required.
First step may take longer than later steps.

First step completed in 6.986 s.

Step   100/2000    5.0% | t 5.000 | ETA 3m 15s | step 0.11s | KE 1341.8611 | drift +0.11% | fluid 36.5434 | solid 1305.3177
  Impulse FP iterations last/mean/max 7/7.17/8
Step   200/2000   10.0% | t 10.000 | ETA 3m 5s | step 0.12s | KE 1408.0580 | drift +5.05% | fluid 37.3419 | solid 1370.7161
  Impulse FP iterations last/mean/max 8/7.14/8
Step   300/2000   15.0% | t 15.000 | ETA 2m 56s | step 0.10s | KE 1520.0704 | drift +13.41% | fluid 38.0639 | solid 1482.0065
  Impulse FP iterations last/mean/max 7/7.13/8
Step   400/2000   20.0% | t 20.000 | ETA 2m 46s | step 0.10s | KE 1598.0036 | drift +19.22% | fluid 37.2682 | solid 1560.7354
  Impulse FP iterations last/mean/max 7/7.14/8
Step   500/2000   25.0% | t 25.000 | ETA 2m 35s | step 0.10s | KE 1639.3046 | drift +22.30% | fluid 35.1744 | solid 1604.1302
  Impulse FP iterations last/mean/max 7/7.12/8
Step   600/2000   30.0% | t 30.000 | ETA 2m 24s | step 0.11s | KE 1658.3031 | drift +23.72% | fluid 41.8826 | solid 1616.4205
  Impulse FP iterations last/mean/max 7/7.12/8
Step   700/2000   35.0% | t 35.000 | ETA 2m 13s | step 0.11s | KE 1667.1481 | drift +24.38% | fluid 37.0163 | solid 1630.1318
  Impulse FP iterations last/mean/max 8/7.12/8
Step   800/2000   40.0% | t 40.000 | ETA 2m 1s | step 0.09s | KE 1670.9670 | drift +24.66% | fluid 39.4809 | solid 1631.4861
  Impulse FP iterations last/mean/max 7/7.12/8
Step   900/2000   45.0% | t 45.000 | ETA 1m 49s | step 0.09s | KE 1672.9980 | drift +24.82% | fluid 36.3774 | solid 1636.6205
  Impulse FP iterations last/mean/max 7/7.13/8
Step  1000/2000   50.0% | t 50.000 | ETA 1m 39s | step 0.09s | KE 1673.7344 | drift +24.87% | fluid 38.8239 | solid 1634.9106
  Impulse FP iterations last/mean/max 7/7.12/8
Step  1100/2000   55.0% | t 55.000 | ETA 1m 29s | step 0.09s | KE 1674.6075 | drift +24.94% | fluid 36.9558 | solid 1637.6517
  Impulse FP iterations last/mean/max 7/7.13/8
Step  1200/2000   60.0% | t 60.000 | ETA 1m 19s | step 0.10s | KE 1674.7910 | drift +24.95% | fluid 41.5378 | solid 1633.2533
  Impulse FP iterations last/mean/max 7/7.12/8
Step  1300/2000   65.0% | t 65.000 | ETA 1m 9s | step 0.10s | KE 1675.4063 | drift +25.00% | fluid 34.9245 | solid 1640.4818
  Impulse FP iterations last/mean/max 7/7.13/8
Step  1400/2000   70.0% | t 70.000 | ETA 1m 0s | step 0.11s | KE 1675.4569 | drift +25.00% | fluid 43.4679 | solid 1631.9890
  Impulse FP iterations last/mean/max 8/7.13/8
Step  1500/2000   75.0% | t 75.000 | ETA 50s | step 0.10s | KE 1675.9550 | drift +25.04% | fluid 36.7442 | solid 1639.2108
  Impulse FP iterations last/mean/max 7/7.13/8
Step  1600/2000   80.0% | t 80.000 | ETA 40s | step 0.11s | KE 1675.9755 | drift +25.04% | fluid 43.2936 | solid 1632.6819
  Impulse FP iterations last/mean/max 8/7.13/8
Step  1700/2000   85.0% | t 85.000 | ETA 30s | step 0.10s | KE 1676.0472 | drift +25.04% | fluid 37.4746 | solid 1638.5726
  Impulse FP iterations last/mean/max 7/7.13/8
Step  1800/2000   90.0% | t 90.000 | ETA 20s | step 0.11s | KE 1676.1832 | drift +25.05% | fluid 37.4891 | solid 1638.6941
  Impulse FP iterations last/mean/max 8/7.13/8
Step  1900/2000   95.0% | t 95.000 | ETA 10s | step 0.10s | KE 1675.8281 | drift +25.03% | fluid 41.4061 | solid 1634.4220
  Impulse FP iterations last/mean/max 7/7.13/8
Solver finished successfully - good job!
Results saved successfully.

================== Run summary ==================
  Bodies:            2
  Triangles / nodes: 256 / 516
  Timesteps:         2000  (dt = 0.05)
  Simulated time:    0 -> 100
  First-step setup:  6.986 s
  Mean time/step:    0.1006 s  (excl. first step)
  Total wall time:   3m 28s
  Impulse FP iters last/mean/max: 7 / 7.133 / 8
  Approx impulse solves/step:     7.133
  Impulse start cache hits/direct: 1999 / 1
  Impulse global drift P/H:       5.965151e-10 / 1.135237e-2
  Impulse per-body max drift P/H: 9.862341e-10 / 1.354741e-2
  CPU cores:         256 available, 8 Rayon worker thread(s)
  Started:           2026-06-24 01:17:40
  Finished:          2026-06-24 01:21:10
  Output file:       /work/e643/e643/shared/multi_ellip/studies/two_body_paper_sweeps/runs/ellipsoid_1_0p8_0p6/ellipsoid_1_0p8_0p6_rho10_E1p5_sep3_run05_impulse_noproj/multiple_body_complete.dat
================================================
