
================ Simulation setup ================
  Run label:         /work/e643/e643/shared/multi_ellip/studies/two_body_paper_sweeps/runs/ellipsoid_1_0p8_0p6/ellipsoid_1_0p8_0p6_rho0p03_E4_sep11_run05_impulse_noproj/
  Started:           2026-06-24 02:49:20
  Input file:        /work/e643/e643/shared/multi_ellip/studies/two_body_paper_sweeps/runs/ellipsoid_1_0p8_0p6/ellipsoid_1_0p8_0p6_rho0p03_E4_sep11_run05_impulse_noproj/input.txt
  Output file:       /work/e643/e643/shared/multi_ellip/studies/two_body_paper_sweeps/runs/ellipsoid_1_0p8_0p6/ellipsoid_1_0p8_0p6_rho0p03_E4_sep11_run05_impulse_noproj/multiple_body_complete.dat
  Bodies:            2
  Fluid density:     1
  Mesh:              ndiv 2 -> 256 triangles / 516 nodes
  Simulated time:    0 -> 100  (dt = 0.05, ~2000 steps)
  Output cadence:    every 1 step(s)
  Output rows:       ~2001
  Progress cadence:  every 100 step(s)
  CPU cores:         256 available, 8 Rayon worker thread(s)
  Strong coupling:   disabled
  Impulse scheme:    enabled
  Hamiltonian step:  disabled
  Hamiltonian midpt: disabled
  Variational step:  disabled
  Energy projection: disabled
  Projection particular metric: Euclidean
  Fluid KE gradient: disabled  (eps = 0.001, scale = 1, linear = 1, angular = 1)
  Fluid KE discrete gradient: disabled
  Impulse pair metric correction: disabled  (mode = pair discrete-gradient, cutoff = all pairs, inner/outer = 0/0, eps = 0.001, linear scale = 1, angular scale = 0)
  Impulse metric correction: disabled  (internal load constraint = disabled)
  Impulse variational defect probe: disabled
  Impulse quadratic pressure: disabled  (scale = 1)
  Added-mass stab:   disabled
  Exact BEM geometry: disabled
  Exact singular BEM: disabled
  Legacy singular SLP diagnostic: disabled
  Phi-dot blend:     0 (off)

  Solver guidance:
    - Strong coupling: use for stiff close-coupled runs; slower but more implicit.
    - Impulse scheme: use when impulse/momentum conservation or KE drift is the focus. Recommended.
    - Added-mass stab: use for higher mesh counts (ndiv > 3) to preserve stability - deprecated.
================================================
Solver starting - good luck!

Initial state:
  Body  1
    density:          0.030000
    shape axes ratio: (1.000000, 0.800000, 0.600000)
    initial KE ratio: 4.000000
    position:         (-5.500000, 0.000000, 0.000000)
    velocity:         (1.520084, -1.020796, 0.245758)
    angular velocity: (5.891618, -1.560584, 1.527032)
    orientation:      (w=0.055334, i=0.520442, j=-0.816461, k=-0.243862)
  Body  2
    density:          0.030000
    shape axes ratio: (1.000000, 0.800000, 0.600000)
    initial KE ratio: 4.000000
    position:         (5.500000, 0.000000, 0.000000)
    velocity:         (1.707400, -1.146586, 0.276042)
    angular velocity: (-2.499271, 5.328624, -2.199507)
    orientation:      (w=0.345377, i=0.576513, j=-0.154819, k=0.724140)

Preparing first step: implicit scheme, no bootstrap passes required.
First step may take longer than later steps.

First step completed in 0.509 s.

Step   100/2000    5.0% | t 5.000 | ETA 12m 24s | step 0.42s | KE 21.7283 | drift +0.78% | fluid 18.8590 | solid 2.8693
  Impulse FP iterations last/mean/max 30/29.38/30
Step   200/2000   10.0% | t 10.000 | ETA 11m 53s | step 0.42s | KE 21.6613 | drift +0.47% | fluid 19.2178 | solid 2.4435
  Impulse FP iterations last/mean/max 30/29.42/30
Step   300/2000   15.0% | t 15.000 | ETA 11m 14s | step 0.41s | KE 21.6709 | drift +0.52% | fluid 18.5480 | solid 3.1229
  Impulse FP iterations last/mean/max 30/29.34/30
Step   400/2000   20.0% | t 20.000 | ETA 10m 35s | step 0.35s | KE 21.6629 | drift +0.48% | fluid 19.0837 | solid 2.5792
  Impulse FP iterations last/mean/max 26/29.35/30
Step   500/2000   25.0% | t 25.000 | ETA 9m 56s | step 0.40s | KE 21.7005 | drift +0.66% | fluid 18.9947 | solid 2.7058
  Impulse FP iterations last/mean/max 30/29.36/30
Step   600/2000   30.0% | t 30.000 | ETA 9m 17s | step 0.39s | KE 21.6714 | drift +0.52% | fluid 19.0752 | solid 2.5961
  Impulse FP iterations last/mean/max 29/29.37/30
Step   700/2000   35.0% | t 35.000 | ETA 8m 39s | step 0.42s | KE 21.6590 | drift +0.46% | fluid 18.7545 | solid 2.9046
  Impulse FP iterations last/mean/max 30/29.37/30
Step   800/2000   40.0% | t 40.000 | ETA 8m 0s | step 0.42s | KE 21.7048 | drift +0.68% | fluid 19.2905 | solid 2.4143
  Impulse FP iterations last/mean/max 30/29.39/30
Step   900/2000   45.0% | t 45.000 | ETA 7m 20s | step 0.40s | KE 21.6456 | drift +0.40% | fluid 18.4092 | solid 3.2364
  Impulse FP iterations last/mean/max 29/29.38/30
Step  1000/2000   50.0% | t 50.000 | ETA 6m 40s | step 0.40s | KE 21.6734 | drift +0.53% | fluid 19.0796 | solid 2.5937
  Impulse FP iterations last/mean/max 30/29.40/30
Step  1100/2000   55.0% | t 55.000 | ETA 6m 0s | step 0.38s | KE 21.6722 | drift +0.52% | fluid 18.7557 | solid 2.9166
  Impulse FP iterations last/mean/max 27/29.40/30
Step  1200/2000   60.0% | t 60.000 | ETA 5m 20s | step 0.42s | KE 21.6677 | drift +0.50% | fluid 18.8900 | solid 2.7777
  Impulse FP iterations last/mean/max 30/29.39/30
Step  1300/2000   65.0% | t 65.000 | ETA 4m 40s | step 0.42s | KE 21.6588 | drift +0.46% | fluid 18.8584 | solid 2.8004
  Impulse FP iterations last/mean/max 30/29.39/30
Step  1400/2000   70.0% | t 70.000 | ETA 4m 0s | step 0.38s | KE 21.7052 | drift +0.68% | fluid 19.2989 | solid 2.4063
  Impulse FP iterations last/mean/max 30/29.40/30
Step  1500/2000   75.0% | t 75.000 | ETA 3m 20s | step 0.40s | KE 21.6588 | drift +0.46% | fluid 18.5291 | solid 3.1298
  Impulse FP iterations last/mean/max 30/29.41/30
Step  1600/2000   80.0% | t 80.000 | ETA 2m 40s | step 0.43s | KE 21.7159 | drift +0.73% | fluid 19.4470 | solid 2.2689
  Impulse FP iterations last/mean/max 30/29.41/30
Step  1700/2000   85.0% | t 85.000 | ETA 2m 0s | step 0.37s | KE 21.6560 | drift +0.45% | fluid 18.6134 | solid 3.0426
  Impulse FP iterations last/mean/max 27/29.40/30
Step  1800/2000   90.0% | t 90.000 | ETA 1m 20s | step 0.44s | KE 21.6915 | drift +0.61% | fluid 19.1872 | solid 2.5043
  Impulse FP iterations last/mean/max 30/29.39/30
Step  1900/2000   95.0% | t 95.000 | ETA 40s | step 0.43s | KE 21.6732 | drift +0.53% | fluid 18.9161 | solid 2.7571
  Impulse FP iterations last/mean/max 30/29.39/30
Solver finished successfully - good job!
Results saved successfully.

================== Run summary ==================
  Bodies:            2
  Triangles / nodes: 256 / 516
  Timesteps:         2000  (dt = 0.05)
  Simulated time:    0 -> 100
  First-step setup:  0.509 s
  Mean time/step:    0.4011 s  (excl. first step)
  Total wall time:   13m 22s
  Impulse FP iters last/mean/max: 30 / 29.392 / 30
  Approx impulse solves/step:     29.392
  Impulse start cache hits/direct: 1999 / 1
  Impulse global drift P/H:       4.949224e-7 / 6.116614e-4
  Impulse per-body max drift P/H: 8.164905e-7 / 1.760245e-4
  CPU cores:         256 available, 8 Rayon worker thread(s)
  Started:           2026-06-24 02:49:20
  Finished:          2026-06-24 03:02:42
  Output file:       /work/e643/e643/shared/multi_ellip/studies/two_body_paper_sweeps/runs/ellipsoid_1_0p8_0p6/ellipsoid_1_0p8_0p6_rho0p03_E4_sep11_run05_impulse_noproj/multiple_body_complete.dat
================================================
