
================ Simulation setup ================
  Run label:         /work/e643/e643/shared/multi_ellip/studies/departing_sphericity_sweep/runs/spheroid_prolate/homogeneous/spheroid_prolate_homogeneous_eps0p003_rho1_E0p5_sep8_run03_impulse_noproj/
  Started:           2026-06-24 02:26:39
  Input file:        /work/e643/e643/shared/multi_ellip/studies/departing_sphericity_sweep/runs/spheroid_prolate/homogeneous/spheroid_prolate_homogeneous_eps0p003_rho1_E0p5_sep8_run03_impulse_noproj/input.txt
  Output file:       /work/e643/e643/shared/multi_ellip/studies/departing_sphericity_sweep/runs/spheroid_prolate/homogeneous/spheroid_prolate_homogeneous_eps0p003_rho1_E0p5_sep8_run03_impulse_noproj/multiple_body_complete.dat
  Bodies:            2
  Fluid density:     1
  Mesh:              ndiv 2 -> 256 triangles / 516 nodes
  Simulated time:    0 -> 100  (dt = 0.05, ~2000 steps)
  Output cadence:    every 1 step(s)
  Output rows:       ~2001
  Progress cadence:  every 100 step(s)
  CPU cores:         256 available, 8 Rayon worker thread(s)
  Strong coupling:   disabled
  Impulse scheme:    enabled
  Hamiltonian step:  disabled
  Hamiltonian midpt: disabled
  Variational step:  disabled
  Energy projection: disabled
  Projection particular metric: Euclidean
  Fluid KE gradient: disabled  (eps = 0.001, scale = 1, linear = 1, angular = 1)
  Fluid KE discrete gradient: disabled
  Impulse pair metric correction: disabled  (mode = pair discrete-gradient, cutoff = all pairs, inner/outer = 0/0, eps = 0.001, linear scale = 1, angular scale = 0)
  Impulse metric correction: disabled  (internal load constraint = disabled)
  Impulse variational defect probe: disabled
  Impulse quadratic pressure: disabled  (scale = 1)
  Added-mass stab:   disabled
  Exact BEM geometry: disabled
  Exact singular BEM: disabled
  Legacy singular SLP diagnostic: disabled
  Phi-dot blend:     0 (off)

  Solver guidance:
    - Strong coupling: use for stiff close-coupled runs; slower but more implicit.
    - Impulse scheme: use when impulse/momentum conservation or KE drift is the focus. Recommended.
    - Added-mass stab: use for higher mesh counts (ndiv > 3) to preserve stability - deprecated.
================================================
Solver starting - good luck!

Initial state:
  Body  1
    density:          1.000000
    shape axes ratio: (1.000000, 0.991054, 0.991054)
    initial KE ratio: 0.500000
    position:         (-4.000000, 0.000000, 0.000000)
    velocity:         (4.555916, -2.828657, -1.656420)
    angular velocity: (4.959503, -0.366546, 3.840233)
    orientation:      (w=0.937832, i=-0.302089, j=-0.156118, k=-0.069575)
  Body  2
    density:          1.000000
    shape axes ratio: (1.000000, 0.991054, 0.991054)
    initial KE ratio: 0.500000
    position:         (4.000000, 0.000000, 0.000000)
    velocity:         (4.567830, -2.836055, -1.660752)
    angular velocity: (1.310849, -3.892029, -4.755229)
    orientation:      (w=0.178647, i=0.275996, j=0.074368, k=-0.941478)

Preparing first step: implicit scheme, no bootstrap passes required.
First step may take longer than later steps.

First step completed in 0.251 s.

Step   100/2000    5.0% | t 5.000 | ETA 3m 29s | step 0.11s | KE 274.9762 | drift +1.63% | fluid 72.3145 | solid 202.6617
  Impulse FP iterations last/mean/max 8/8.00/8
Step   200/2000   10.0% | t 10.000 | ETA 3m 19s | step 0.12s | KE 283.1919 | drift +4.67% | fluid 72.2189 | solid 210.9730
  Impulse FP iterations last/mean/max 8/8.00/8
Step   300/2000   15.0% | t 15.000 | ETA 3m 9s | step 0.11s | KE 294.2864 | drift +8.77% | fluid 72.1950 | solid 222.0913
  Impulse FP iterations last/mean/max 8/8.00/8
Step   400/2000   20.0% | t 20.000 | ETA 2m 58s | step 0.10s | KE 307.5014 | drift +13.65% | fluid 72.1759 | solid 235.3255
  Impulse FP iterations last/mean/max 8/7.99/8
Step   500/2000   25.0% | t 25.000 | ETA 2m 47s | step 0.12s | KE 322.2085 | drift +19.09% | fluid 72.3381 | solid 249.8704
  Impulse FP iterations last/mean/max 8/7.99/8
Step   600/2000   30.0% | t 30.000 | ETA 2m 36s | step 0.11s | KE 337.9433 | drift +24.91% | fluid 72.2958 | solid 265.6475
  Impulse FP iterations last/mean/max 7/7.99/8
Step   700/2000   35.0% | t 35.000 | ETA 2m 25s | step 0.11s | KE 354.3043 | drift +30.95% | fluid 72.3168 | solid 281.9874
  Impulse FP iterations last/mean/max 8/7.98/8
Step   800/2000   40.0% | t 40.000 | ETA 2m 13s | step 0.12s | KE 371.0083 | drift +37.13% | fluid 72.2056 | solid 298.8026
  Impulse FP iterations last/mean/max 8/7.96/8
Step   900/2000   45.0% | t 45.000 | ETA 2m 2s | step 0.12s | KE 387.8052 | drift +43.33% | fluid 72.3115 | solid 315.4936
  Impulse FP iterations last/mean/max 8/7.95/8
Step  1000/2000   50.0% | t 50.000 | ETA 1m 51s | step 0.12s | KE 404.5161 | drift +49.51% | fluid 72.3400 | solid 332.1761
  Impulse FP iterations last/mean/max 8/7.94/8
Step  1100/2000   55.0% | t 55.000 | ETA 1m 40s | step 0.11s | KE 421.0415 | drift +55.62% | fluid 72.3382 | solid 348.7033
  Impulse FP iterations last/mean/max 8/7.92/8
Step  1200/2000   60.0% | t 60.000 | ETA 1m 28s | step 0.12s | KE 437.2486 | drift +61.61% | fluid 72.3004 | solid 364.9482
  Impulse FP iterations last/mean/max 8/7.91/8
Step  1300/2000   65.0% | t 65.000 | ETA 1m 17s | step 0.11s | KE 453.0862 | drift +67.46% | fluid 72.2617 | solid 380.8245
  Impulse FP iterations last/mean/max 8/7.89/8
Step  1400/2000   70.0% | t 70.000 | ETA 1m 6s | step 0.11s | KE 468.4940 | drift +73.16% | fluid 72.2822 | solid 396.2117
  Impulse FP iterations last/mean/max 8/7.88/8
Step  1500/2000   75.0% | t 75.000 | ETA 55s | step 0.10s | KE 483.4277 | drift +78.68% | fluid 72.2125 | solid 411.2153
  Impulse FP iterations last/mean/max 7/7.87/8
Step  1600/2000   80.0% | t 80.000 | ETA 44s | step 0.12s | KE 497.8048 | drift +83.99% | fluid 72.3420 | solid 425.4628
  Impulse FP iterations last/mean/max 8/7.86/8
Step  1700/2000   85.0% | t 85.000 | ETA 33s | step 0.12s | KE 511.7356 | drift +89.14% | fluid 72.2575 | solid 439.4782
  Impulse FP iterations last/mean/max 8/7.85/8
Step  1800/2000   90.0% | t 90.000 | ETA 22s | step 0.11s | KE 525.0884 | drift +94.07% | fluid 72.3537 | solid 452.7347
  Impulse FP iterations last/mean/max 8/7.83/8
Step  1900/2000   95.0% | t 95.000 | ETA 10s | step 0.08s | KE 537.9534 | drift +98.83% | fluid 72.3225 | solid 465.6309
  Impulse FP iterations last/mean/max 7/7.82/8
Solver finished successfully - good job!
Results saved successfully.

================== Run summary ==================
  Bodies:            2
  Triangles / nodes: 256 / 516
  Timesteps:         2000  (dt = 0.05)
  Simulated time:    0 -> 100
  First-step setup:  0.251 s
  Mean time/step:    0.1084 s  (excl. first step)
  Total wall time:   3m 36s
  Impulse FP iters last/mean/max: 8 / 7.810 / 8
  Approx impulse solves/step:     7.810
  Impulse start cache hits/direct: 1999 / 1
  Impulse global drift P/H:       1.636211e-8 / 4.633659e-2
  Impulse per-body max drift P/H: 2.086730e-8 / 8.991171e-3
  CPU cores:         256 available, 8 Rayon worker thread(s)
  Started:           2026-06-24 02:26:39
  Finished:          2026-06-24 02:30:16
  Output file:       /work/e643/e643/shared/multi_ellip/studies/departing_sphericity_sweep/runs/spheroid_prolate/homogeneous/spheroid_prolate_homogeneous_eps0p003_rho1_E0p5_sep8_run03_impulse_noproj/multiple_body_complete.dat
================================================
