
================ Simulation setup ================
  Run label:         /work/e643/e643/shared/multi_ellip/studies/departing_sphericity_sweep/runs/triaxial/homogeneous/triaxial_homogeneous_eps0p0001_rho1_E0p5_sep8_run06_impulse_noproj/
  Started:           2026-06-24 02:23:18
  Input file:        /work/e643/e643/shared/multi_ellip/studies/departing_sphericity_sweep/runs/triaxial/homogeneous/triaxial_homogeneous_eps0p0001_rho1_E0p5_sep8_run06_impulse_noproj/input.txt
  Output file:       /work/e643/e643/shared/multi_ellip/studies/departing_sphericity_sweep/runs/triaxial/homogeneous/triaxial_homogeneous_eps0p0001_rho1_E0p5_sep8_run06_impulse_noproj/multiple_body_complete.dat
  Bodies:            2
  Fluid density:     1
  Mesh:              ndiv 2 -> 256 triangles / 516 nodes
  Simulated time:    0 -> 100  (dt = 0.05, ~2000 steps)
  Output cadence:    every 1 step(s)
  Output rows:       ~2001
  Progress cadence:  every 100 step(s)
  CPU cores:         256 available, 8 Rayon worker thread(s)
  Strong coupling:   disabled
  Impulse scheme:    enabled
  Hamiltonian step:  disabled
  Hamiltonian midpt: disabled
  Variational step:  disabled
  Energy projection: disabled
  Projection particular metric: Euclidean
  Fluid KE gradient: disabled  (eps = 0.001, scale = 1, linear = 1, angular = 1)
  Fluid KE discrete gradient: disabled
  Impulse pair metric correction: disabled  (mode = pair discrete-gradient, cutoff = all pairs, inner/outer = 0/0, eps = 0.001, linear scale = 1, angular scale = 0)
  Impulse metric correction: disabled  (internal load constraint = disabled)
  Impulse variational defect probe: disabled
  Impulse quadratic pressure: disabled  (scale = 1)
  Added-mass stab:   disabled
  Exact BEM geometry: disabled
  Exact singular BEM: disabled
  Legacy singular SLP diagnostic: disabled
  Phi-dot blend:     0 (off)

  Solver guidance:
    - Strong coupling: use for stiff close-coupled runs; slower but more implicit.
    - Impulse scheme: use when impulse/momentum conservation or KE drift is the focus. Recommended.
    - Added-mass stab: use for higher mesh counts (ndiv > 3) to preserve stability - deprecated.
================================================
Solver starting - good luck!

Initial state:
  Body  1
    density:          1.000000
    shape axes ratio: (1.000000, 0.999900, 0.999800)
    initial KE ratio: 0.500000
    position:         (-4.000000, 0.000000, 0.000000)
    velocity:         (0.125345, 1.116745, -5.506606)
    angular velocity: (-0.395588, 2.025008, 5.934751)
    orientation:      (w=0.343386, i=-0.838529, j=-0.283511, k=-0.313970)
  Body  2
    density:          1.000000
    shape axes ratio: (1.000000, 0.999900, 0.999800)
    initial KE ratio: 0.500000
    position:         (4.000000, 0.000000, 0.000000)
    velocity:         (0.125338, 1.116689, -5.506328)
    angular velocity: (2.897558, -5.244285, -1.892101)
    orientation:      (w=0.554998, i=-0.238923, j=-0.749840, k=-0.269504)

Preparing first step: implicit scheme, no bootstrap passes required.
First step may take longer than later steps.

First step completed in 0.253 s.

Step   100/2000    5.0% | t 5.000 | ETA 2m 26s | step 0.07s | KE 271.2311 | drift +0.06% | fluid 72.6110 | solid 198.6201
  Impulse FP iterations last/mean/max 5/5.42/6
Step   200/2000   10.0% | t 10.000 | ETA 2m 16s | step 0.07s | KE 271.4092 | drift +0.13% | fluid 72.6111 | solid 198.7981
  Impulse FP iterations last/mean/max 5/5.37/6
Step   300/2000   15.0% | t 15.000 | ETA 2m 6s | step 0.06s | KE 271.5903 | drift +0.20% | fluid 72.6115 | solid 198.9788
  Impulse FP iterations last/mean/max 5/5.27/6
Step   400/2000   20.0% | t 20.000 | ETA 1m 58s | step 0.06s | KE 271.7741 | drift +0.26% | fluid 72.6113 | solid 199.1628
  Impulse FP iterations last/mean/max 5/5.27/6
Step   500/2000   25.0% | t 25.000 | ETA 1m 49s | step 0.07s | KE 271.9605 | drift +0.33% | fluid 72.6101 | solid 199.3505
  Impulse FP iterations last/mean/max 5/5.30/6
Step   600/2000   30.0% | t 30.000 | ETA 1m 42s | step 0.08s | KE 272.1488 | drift +0.40% | fluid 72.6105 | solid 199.5382
  Impulse FP iterations last/mean/max 6/5.30/6
Step   700/2000   35.0% | t 35.000 | ETA 1m 35s | step 0.08s | KE 272.3388 | drift +0.47% | fluid 72.6119 | solid 199.7268
  Impulse FP iterations last/mean/max 6/5.30/6
Step   800/2000   40.0% | t 40.000 | ETA 1m 27s | step 0.08s | KE 272.5306 | drift +0.54% | fluid 72.6106 | solid 199.9200
  Impulse FP iterations last/mean/max 6/5.29/6
Step   900/2000   45.0% | t 45.000 | ETA 1m 20s | step 0.08s | KE 272.7232 | drift +0.62% | fluid 72.6126 | solid 200.1106
  Impulse FP iterations last/mean/max 6/5.29/6
Step  1000/2000   50.0% | t 50.000 | ETA 1m 13s | step 0.07s | KE 272.9171 | drift +0.69% | fluid 72.6123 | solid 200.3049
  Impulse FP iterations last/mean/max 5/5.28/6
Step  1100/2000   55.0% | t 55.000 | ETA 1m 6s | step 0.07s | KE 273.1114 | drift +0.76% | fluid 72.6132 | solid 200.4982
  Impulse FP iterations last/mean/max 5/5.28/6
Step  1200/2000   60.0% | t 60.000 | ETA 58s | step 0.07s | KE 273.3063 | drift +0.83% | fluid 72.6108 | solid 200.6956
  Impulse FP iterations last/mean/max 5/5.27/6
Step  1300/2000   65.0% | t 65.000 | ETA 51s | step 0.08s | KE 273.5013 | drift +0.90% | fluid 72.6106 | solid 200.8908
  Impulse FP iterations last/mean/max 5/5.27/6
Step  1400/2000   70.0% | t 70.000 | ETA 44s | step 0.07s | KE 273.6959 | drift +0.97% | fluid 72.6122 | solid 201.0836
  Impulse FP iterations last/mean/max 5/5.26/6
Step  1500/2000   75.0% | t 75.000 | ETA 36s | step 0.09s | KE 273.8901 | drift +1.05% | fluid 72.6132 | solid 201.2768
  Impulse FP iterations last/mean/max 6/5.26/6
Step  1600/2000   80.0% | t 80.000 | ETA 29s | step 0.07s | KE 274.0837 | drift +1.12% | fluid 72.6135 | solid 201.4702
  Impulse FP iterations last/mean/max 5/5.26/6
Step  1700/2000   85.0% | t 85.000 | ETA 22s | step 0.07s | KE 274.2764 | drift +1.19% | fluid 72.6106 | solid 201.6658
  Impulse FP iterations last/mean/max 5/5.25/6
Step  1800/2000   90.0% | t 90.000 | ETA 14s | step 0.07s | KE 274.4679 | drift +1.26% | fluid 72.6118 | solid 201.8560
  Impulse FP iterations last/mean/max 5/5.25/6
Step  1900/2000   95.0% | t 95.000 | ETA 7s | step 0.09s | KE 274.6578 | drift +1.33% | fluid 72.6118 | solid 202.0460
  Impulse FP iterations last/mean/max 6/5.24/6
Solver finished successfully - good job!
Results saved successfully.

================== Run summary ==================
  Bodies:            2
  Triangles / nodes: 256 / 516
  Timesteps:         2000  (dt = 0.05)
  Simulated time:    0 -> 100
  First-step setup:  0.253 s
  Mean time/step:    0.0732 s  (excl. first step)
  Total wall time:   2m 26s
  Impulse FP iters last/mean/max: 5 / 5.234 / 6
  Approx impulse solves/step:     5.234
  Impulse start cache hits/direct: 1999 / 1
  Impulse global drift P/H:       9.686443e-9 / 2.003331e-3
  Impulse per-body max drift P/H: 1.619657e-8 / 9.887006e-5
  CPU cores:         256 available, 8 Rayon worker thread(s)
  Started:           2026-06-24 02:23:18
  Finished:          2026-06-24 02:25:46
  Output file:       /work/e643/e643/shared/multi_ellip/studies/departing_sphericity_sweep/runs/triaxial/homogeneous/triaxial_homogeneous_eps0p0001_rho1_E0p5_sep8_run06_impulse_noproj/multiple_body_complete.dat
================================================
