
================ Simulation setup ================
  Run label:         /work/e643/e643/shared/multi_ellip/studies/two_body_paper_sweeps/runs/spheroid_1_0p7_0p7/spheroid_1_0p7_0p7_rho0p03_E30_sep11_run05_impulse_noproj/
  Started:           2026-06-24 02:33:40
  Input file:        /work/e643/e643/shared/multi_ellip/studies/two_body_paper_sweeps/runs/spheroid_1_0p7_0p7/spheroid_1_0p7_0p7_rho0p03_E30_sep11_run05_impulse_noproj/input.txt
  Output file:       /work/e643/e643/shared/multi_ellip/studies/two_body_paper_sweeps/runs/spheroid_1_0p7_0p7/spheroid_1_0p7_0p7_rho0p03_E30_sep11_run05_impulse_noproj/multiple_body_complete.dat
  Bodies:            2
  Fluid density:     1
  Mesh:              ndiv 2 -> 256 triangles / 516 nodes
  Simulated time:    0 -> 100  (dt = 0.05, ~2000 steps)
  Output cadence:    every 1 step(s)
  Output rows:       ~2001
  Progress cadence:  every 100 step(s)
  CPU cores:         256 available, 8 Rayon worker thread(s)
  Strong coupling:   disabled
  Impulse scheme:    enabled
  Hamiltonian step:  disabled
  Hamiltonian midpt: disabled
  Variational step:  disabled
  Energy projection: disabled
  Projection particular metric: Euclidean
  Fluid KE gradient: disabled  (eps = 0.001, scale = 1, linear = 1, angular = 1)
  Fluid KE discrete gradient: disabled
  Impulse pair metric correction: disabled  (mode = pair discrete-gradient, cutoff = all pairs, inner/outer = 0/0, eps = 0.001, linear scale = 1, angular scale = 0)
  Impulse metric correction: disabled  (internal load constraint = disabled)
  Impulse variational defect probe: disabled
  Impulse quadratic pressure: disabled  (scale = 1)
  Added-mass stab:   disabled
  Exact BEM geometry: disabled
  Exact singular BEM: disabled
  Legacy singular SLP diagnostic: disabled
  Phi-dot blend:     0 (off)

  Solver guidance:
    - Strong coupling: use for stiff close-coupled runs; slower but more implicit.
    - Impulse scheme: use when impulse/momentum conservation or KE drift is the focus. Recommended.
    - Added-mass stab: use for higher mesh counts (ndiv > 3) to preserve stability - deprecated.
================================================
Solver starting - good luck!

Initial state:
  Body  1
    density:          0.030000
    shape axes ratio: (1.000000, 0.700000, 0.700000)
    initial KE ratio: 30.000000
    position:         (-5.500000, 0.000000, 0.000000)
    velocity:         (-0.332510, 0.536183, -0.203874)
    angular velocity: (-5.913949, -0.464777, 2.070653)
    orientation:      (w=0.424799, i=0.769691, j=-0.471136, k=0.071771)
  Body  2
    density:          0.030000
    shape axes ratio: (1.000000, 0.700000, 0.700000)
    initial KE ratio: 30.000000
    position:         (5.500000, 0.000000, 0.000000)
    velocity:         (-0.391338, 0.631044, -0.239944)
    angular velocity: (2.005823, -2.712604, 5.300648)
    orientation:      (w=-0.090967, i=0.941193, j=0.251234, k=0.206793)

Preparing first step: implicit scheme, no bootstrap passes required.
First step may take longer than later steps.

First step completed in 0.391 s.

Step   100/2000    5.0% | t 5.000 | ETA 7m 15s | step 0.20s | KE 9.1770 | drift +0.38% | fluid 6.8720 | solid 2.3049
  Impulse FP iterations last/mean/max 18/20.05/23
Step   200/2000   10.0% | t 10.000 | ETA 6m 49s | step 0.22s | KE 9.1582 | drift +0.17% | fluid 6.8012 | solid 2.3570
  Impulse FP iterations last/mean/max 20/19.93/23
Step   300/2000   15.0% | t 15.000 | ETA 6m 24s | step 0.22s | KE 9.1669 | drift +0.27% | fluid 6.8442 | solid 2.3226
  Impulse FP iterations last/mean/max 19/19.89/23
Step   400/2000   20.0% | t 20.000 | ETA 6m 3s | step 0.28s | KE 9.1434 | drift +0.01% | fluid 6.8216 | solid 2.3218
  Impulse FP iterations last/mean/max 23/19.95/23
Step   500/2000   25.0% | t 25.000 | ETA 5m 42s | step 0.25s | KE 9.1517 | drift +0.10% | fluid 6.8196 | solid 2.3321
  Impulse FP iterations last/mean/max 20/19.99/23
Step   600/2000   30.0% | t 30.000 | ETA 5m 21s | step 0.26s | KE 9.1692 | drift +0.29% | fluid 6.8490 | solid 2.3203
  Impulse FP iterations last/mean/max 20/19.96/23
Step   700/2000   35.0% | t 35.000 | ETA 4m 59s | step 0.23s | KE 9.1477 | drift +0.06% | fluid 6.7891 | solid 2.3586
  Impulse FP iterations last/mean/max 17/19.88/23
Step   800/2000   40.0% | t 40.000 | ETA 4m 37s | step 0.25s | KE 9.1778 | drift +0.39% | fluid 6.8733 | solid 2.3044
  Impulse FP iterations last/mean/max 20/19.83/23
Step   900/2000   45.0% | t 45.000 | ETA 4m 15s | step 0.25s | KE 9.1900 | drift +0.52% | fluid 6.8394 | solid 2.3506
  Impulse FP iterations last/mean/max 21/19.88/23
Step  1000/2000   50.0% | t 50.000 | ETA 3m 51s | step 0.22s | KE 9.1981 | drift +0.61% | fluid 6.8446 | solid 2.3535
  Impulse FP iterations last/mean/max 19/19.91/23
Step  1100/2000   55.0% | t 55.000 | ETA 3m 28s | step 0.21s | KE 9.2076 | drift +0.71% | fluid 6.8653 | solid 2.3424
  Impulse FP iterations last/mean/max 18/19.91/23
Step  1200/2000   60.0% | t 60.000 | ETA 3m 5s | step 0.19s | KE 9.2205 | drift +0.85% | fluid 6.8943 | solid 2.3262
  Impulse FP iterations last/mean/max 16/19.87/23
Step  1300/2000   65.0% | t 65.000 | ETA 2m 43s | step 0.22s | KE 9.2270 | drift +0.92% | fluid 6.8620 | solid 2.3650
  Impulse FP iterations last/mean/max 19/19.89/23
Step  1400/2000   70.0% | t 70.000 | ETA 2m 20s | step 0.24s | KE 9.2325 | drift +0.98% | fluid 6.8585 | solid 2.3739
  Impulse FP iterations last/mean/max 21/19.90/23
Step  1500/2000   75.0% | t 75.000 | ETA 1m 57s | step 0.24s | KE 9.2422 | drift +1.09% | fluid 6.9266 | solid 2.3156
  Impulse FP iterations last/mean/max 19/19.89/23
Step  1600/2000   80.0% | t 80.000 | ETA 1m 34s | step 0.23s | KE 9.2388 | drift +1.05% | fluid 6.8699 | solid 2.3689
  Impulse FP iterations last/mean/max 20/19.86/23
Step  1700/2000   85.0% | t 85.000 | ETA 1m 10s | step 0.23s | KE 9.2530 | drift +1.21% | fluid 6.8873 | solid 2.3657
  Impulse FP iterations last/mean/max 19/19.88/23
Step  1800/2000   90.0% | t 90.000 | ETA 47s | step 0.23s | KE 9.2469 | drift +1.14% | fluid 6.8837 | solid 2.3632
  Impulse FP iterations last/mean/max 20/19.89/23
Step  1900/2000   95.0% | t 95.000 | ETA 23s | step 0.20s | KE 9.2536 | drift +1.21% | fluid 6.9286 | solid 2.3250
  Impulse FP iterations last/mean/max 18/19.85/23
Solver finished successfully - good job!
Results saved successfully.

================== Run summary ==================
  Bodies:            2
  Triangles / nodes: 256 / 516
  Timesteps:         2000  (dt = 0.05)
  Simulated time:    0 -> 100
  First-step setup:  0.391 s
  Mean time/step:    0.2333 s  (excl. first step)
  Total wall time:   7m 46s
  Impulse FP iters last/mean/max: 20 / 19.867 / 23
  Approx impulse solves/step:     19.868
  Impulse start cache hits/direct: 1999 / 1
  Impulse global drift P/H:       2.008534e-7 / 1.508916e-3
  Impulse per-body max drift P/H: 4.642295e-7 / 1.037567e-3
  CPU cores:         256 available, 8 Rayon worker thread(s)
  Started:           2026-06-24 02:33:40
  Finished:          2026-06-24 02:41:27
  Output file:       /work/e643/e643/shared/multi_ellip/studies/two_body_paper_sweeps/runs/spheroid_1_0p7_0p7/spheroid_1_0p7_0p7_rho0p03_E30_sep11_run05_impulse_noproj/multiple_body_complete.dat
================================================
