
================ Simulation setup ================
  Run label:         /work/e643/e643/shared/multi_ellip/studies/two_body_paper_sweeps/runs/spheroid_1_0p7_0p7/spheroid_1_0p7_0p7_rho0p3_E0p55_sep11_run04_impulse_noproj/
  Started:           2026-06-24 01:46:04
  Input file:        /work/e643/e643/shared/multi_ellip/studies/two_body_paper_sweeps/runs/spheroid_1_0p7_0p7/spheroid_1_0p7_0p7_rho0p3_E0p55_sep11_run04_impulse_noproj/input.txt
  Output file:       /work/e643/e643/shared/multi_ellip/studies/two_body_paper_sweeps/runs/spheroid_1_0p7_0p7/spheroid_1_0p7_0p7_rho0p3_E0p55_sep11_run04_impulse_noproj/multiple_body_complete.dat
  Bodies:            2
  Fluid density:     1
  Mesh:              ndiv 2 -> 256 triangles / 516 nodes
  Simulated time:    0 -> 100  (dt = 0.05, ~2000 steps)
  Output cadence:    every 1 step(s)
  Output rows:       ~2001
  Progress cadence:  every 100 step(s)
  CPU cores:         256 available, 8 Rayon worker thread(s)
  Strong coupling:   disabled
  Impulse scheme:    enabled
  Hamiltonian step:  disabled
  Hamiltonian midpt: disabled
  Variational step:  disabled
  Energy projection: disabled
  Projection particular metric: Euclidean
  Fluid KE gradient: disabled  (eps = 0.001, scale = 1, linear = 1, angular = 1)
  Fluid KE discrete gradient: disabled
  Impulse pair metric correction: disabled  (mode = pair discrete-gradient, cutoff = all pairs, inner/outer = 0/0, eps = 0.001, linear scale = 1, angular scale = 0)
  Impulse metric correction: disabled  (internal load constraint = disabled)
  Impulse variational defect probe: disabled
  Impulse quadratic pressure: disabled  (scale = 1)
  Added-mass stab:   disabled
  Exact BEM geometry: disabled
  Exact singular BEM: disabled
  Legacy singular SLP diagnostic: disabled
  Phi-dot blend:     0 (off)

  Solver guidance:
    - Strong coupling: use for stiff close-coupled runs; slower but more implicit.
    - Impulse scheme: use when impulse/momentum conservation or KE drift is the focus. Recommended.
    - Added-mass stab: use for higher mesh counts (ndiv > 3) to preserve stability - deprecated.
================================================
Solver starting - good luck!

Initial state:
  Body  1
    density:          0.300000
    shape axes ratio: (1.000000, 0.700000, 0.700000)
    initial KE ratio: 0.550000
    position:         (-5.500000, 0.000000, 0.000000)
    velocity:         (-3.444229, -3.566562, 1.231266)
    angular velocity: (5.279236, -2.058893, 2.714599)
    orientation:      (w=0.556449, i=0.526945, j=0.505555, k=-0.396369)
  Body  2
    density:          0.300000
    shape axes ratio: (1.000000, 0.700000, 0.700000)
    initial KE ratio: 0.550000
    position:         (5.500000, 0.000000, 0.000000)
    velocity:         (-3.808160, -3.943419, 1.361366)
    angular velocity: (2.899865, 5.456083, 1.140334)
    orientation:      (w=-0.292188, i=0.474058, j=-0.516679, k=0.650337)

Preparing first step: implicit scheme, no bootstrap passes required.
First step may take longer than later steps.

First step completed in 0.307 s.

Step   100/2000    5.0% | t 5.000 | ETA 5m 31s | step 0.17s | KE 120.1286 | drift +0.19% | fluid 63.4240 | solid 56.7046
  Impulse FP iterations last/mean/max 12/12.53/14
Step   200/2000   10.0% | t 10.000 | ETA 5m 18s | step 0.16s | KE 120.1049 | drift +0.17% | fluid 63.3726 | solid 56.7323
  Impulse FP iterations last/mean/max 11/12.55/14
Step   300/2000   15.0% | t 15.000 | ETA 5m 2s | step 0.18s | KE 119.8195 | drift -0.06% | fluid 63.3795 | solid 56.4401
  Impulse FP iterations last/mean/max 12/12.56/14
Step   400/2000   20.0% | t 20.000 | ETA 4m 45s | step 0.20s | KE 119.6486 | drift -0.21% | fluid 63.1251 | solid 56.5235
  Impulse FP iterations last/mean/max 13/12.56/14
Step   500/2000   25.0% | t 25.000 | ETA 4m 27s | step 0.19s | KE 119.3914 | drift -0.42% | fluid 62.9642 | solid 56.4272
  Impulse FP iterations last/mean/max 13/12.55/14
Step   600/2000   30.0% | t 30.000 | ETA 4m 10s | step 0.18s | KE 119.4088 | drift -0.41% | fluid 62.8966 | solid 56.5122
  Impulse FP iterations last/mean/max 12/12.55/14
Step   700/2000   35.0% | t 35.000 | ETA 3m 52s | step 0.17s | KE 119.8875 | drift -0.01% | fluid 63.0082 | solid 56.8793
  Impulse FP iterations last/mean/max 12/12.56/14
Step   800/2000   40.0% | t 40.000 | ETA 3m 34s | step 0.17s | KE 119.8812 | drift -0.01% | fluid 63.1718 | solid 56.7094
  Impulse FP iterations last/mean/max 12/12.56/14
Step   900/2000   45.0% | t 45.000 | ETA 3m 16s | step 0.17s | KE 119.6727 | drift -0.19% | fluid 63.0330 | solid 56.6397
  Impulse FP iterations last/mean/max 12/12.56/14
Step  1000/2000   50.0% | t 50.000 | ETA 2m 59s | step 0.19s | KE 119.6212 | drift -0.23% | fluid 63.1796 | solid 56.4416
  Impulse FP iterations last/mean/max 13/12.56/14
Step  1100/2000   55.0% | t 55.000 | ETA 2m 40s | step 0.17s | KE 119.5902 | drift -0.25% | fluid 63.0908 | solid 56.4994
  Impulse FP iterations last/mean/max 13/12.56/14
Step  1200/2000   60.0% | t 60.000 | ETA 2m 22s | step 0.16s | KE 119.5576 | drift -0.28% | fluid 63.1145 | solid 56.4431
  Impulse FP iterations last/mean/max 12/12.56/14
Step  1300/2000   65.0% | t 65.000 | ETA 2m 3s | step 0.14s | KE 119.7068 | drift -0.16% | fluid 63.2653 | solid 56.4415
  Impulse FP iterations last/mean/max 12/12.56/14
Step  1400/2000   70.0% | t 70.000 | ETA 1m 45s | step 0.16s | KE 119.8516 | drift -0.04% | fluid 63.2775 | solid 56.5742
  Impulse FP iterations last/mean/max 13/12.56/14
Step  1500/2000   75.0% | t 75.000 | ETA 1m 27s | step 0.15s | KE 119.7739 | drift -0.10% | fluid 63.3747 | solid 56.3992
  Impulse FP iterations last/mean/max 12/12.56/14
Step  1600/2000   80.0% | t 80.000 | ETA 1m 9s | step 0.18s | KE 119.7737 | drift -0.10% | fluid 63.1734 | solid 56.6002
  Impulse FP iterations last/mean/max 13/12.56/14
Step  1700/2000   85.0% | t 85.000 | ETA 51s | step 0.16s | KE 119.4732 | drift -0.35% | fluid 63.0105 | solid 56.4626
  Impulse FP iterations last/mean/max 12/12.55/14
Step  1800/2000   90.0% | t 90.000 | ETA 34s | step 0.19s | KE 119.5693 | drift -0.27% | fluid 62.8658 | solid 56.7035
  Impulse FP iterations last/mean/max 13/12.56/14
Step  1900/2000   95.0% | t 95.000 | ETA 17s | step 0.19s | KE 119.7438 | drift -0.13% | fluid 62.9193 | solid 56.8246
  Impulse FP iterations last/mean/max 13/12.56/14
Solver finished successfully - good job!
Results saved successfully.

================== Run summary ==================
  Bodies:            2
  Triangles / nodes: 256 / 516
  Timesteps:         2000  (dt = 0.05)
  Simulated time:    0 -> 100
  First-step setup:  0.307 s
  Mean time/step:    0.1732 s  (excl. first step)
  Total wall time:   5m 46s
  Impulse FP iters last/mean/max: 13 / 12.561 / 14
  Approx impulse solves/step:     12.562
  Impulse start cache hits/direct: 1999 / 1
  Impulse global drift P/H:       2.311155e-8 / 2.950615e-3
  Impulse per-body max drift P/H: 3.388744e-8 / 1.431556e-3
  CPU cores:         256 available, 8 Rayon worker thread(s)
  Started:           2026-06-24 01:46:04
  Finished:          2026-06-24 01:51:51
  Output file:       /work/e643/e643/shared/multi_ellip/studies/two_body_paper_sweeps/runs/spheroid_1_0p7_0p7/spheroid_1_0p7_0p7_rho0p3_E0p55_sep11_run04_impulse_noproj/multiple_body_complete.dat
================================================
