
================ Simulation setup ================
  Run label:         /work/e643/e643/shared/multi_ellip/studies/departing_sphericity_sweep/runs/spheroid_prolate/homogeneous/spheroid_prolate_homogeneous_eps0p3_rho1_E0p5_sep8_run10_impulse_noproj/
  Started:           2026-06-24 02:30:37
  Input file:        /work/e643/e643/shared/multi_ellip/studies/departing_sphericity_sweep/runs/spheroid_prolate/homogeneous/spheroid_prolate_homogeneous_eps0p3_rho1_E0p5_sep8_run10_impulse_noproj/input.txt
  Output file:       /work/e643/e643/shared/multi_ellip/studies/departing_sphericity_sweep/runs/spheroid_prolate/homogeneous/spheroid_prolate_homogeneous_eps0p3_rho1_E0p5_sep8_run10_impulse_noproj/multiple_body_complete.dat
  Bodies:            2
  Fluid density:     1
  Mesh:              ndiv 2 -> 256 triangles / 516 nodes
  Simulated time:    0 -> 100  (dt = 0.05, ~2000 steps)
  Output cadence:    every 1 step(s)
  Output rows:       ~2001
  Progress cadence:  every 100 step(s)
  CPU cores:         256 available, 8 Rayon worker thread(s)
  Strong coupling:   disabled
  Impulse scheme:    enabled
  Hamiltonian step:  disabled
  Hamiltonian midpt: disabled
  Variational step:  disabled
  Energy projection: disabled
  Projection particular metric: Euclidean
  Fluid KE gradient: disabled  (eps = 0.001, scale = 1, linear = 1, angular = 1)
  Fluid KE discrete gradient: disabled
  Impulse pair metric correction: disabled  (mode = pair discrete-gradient, cutoff = all pairs, inner/outer = 0/0, eps = 0.001, linear scale = 1, angular scale = 0)
  Impulse metric correction: disabled  (internal load constraint = disabled)
  Impulse variational defect probe: disabled
  Impulse quadratic pressure: disabled  (scale = 1)
  Added-mass stab:   disabled
  Exact BEM geometry: disabled
  Exact singular BEM: disabled
  Legacy singular SLP diagnostic: disabled
  Phi-dot blend:     0 (off)

  Solver guidance:
    - Strong coupling: use for stiff close-coupled runs; slower but more implicit.
    - Impulse scheme: use when impulse/momentum conservation or KE drift is the focus. Recommended.
    - Added-mass stab: use for higher mesh counts (ndiv > 3) to preserve stability - deprecated.
================================================
Solver starting - good luck!

Initial state:
  Body  1
    density:          1.000000
    shape axes ratio: (1.000000, 0.455166, 0.455166)
    initial KE ratio: 0.500000
    position:         (-4.000000, 0.000000, 0.000000)
    velocity:         (3.006962, 5.944879, -0.998723)
    angular velocity: (3.163558, 5.240105, -1.418316)
    orientation:      (w=-0.827406, i=-0.043650, j=0.510514, k=-0.229934)
  Body  2
    density:          1.000000
    shape axes ratio: (1.000000, 0.455166, 0.455166)
    initial KE ratio: 0.500000
    position:         (4.000000, 0.000000, 0.000000)
    velocity:         (3.206704, 6.339777, -1.065065)
    angular velocity: (-1.769379, 3.759123, -4.713461)
    orientation:      (w=-0.620245, i=0.197960, j=-0.661464, k=-0.372254)

Preparing first step: implicit scheme, no bootstrap passes required.
First step may take longer than later steps.

First step completed in 0.379 s.

Step   100/2000    5.0% | t 5.000 | ETA 5m 21s | step 0.16s | KE 456.7669 | drift -0.11% | fluid 170.2066 | solid 286.5604
  Impulse FP iterations last/mean/max 11/11.87/13
Step   200/2000   10.0% | t 10.000 | ETA 5m 2s | step 0.15s | KE 457.7318 | drift +0.10% | fluid 170.3451 | solid 287.3867
  Impulse FP iterations last/mean/max 11/11.76/13
Step   300/2000   15.0% | t 15.000 | ETA 4m 44s | step 0.17s | KE 457.0707 | drift -0.04% | fluid 170.2754 | solid 286.7952
  Impulse FP iterations last/mean/max 12/11.70/13
Step   400/2000   20.0% | t 20.000 | ETA 4m 26s | step 0.16s | KE 457.0921 | drift -0.03% | fluid 174.1789 | solid 282.9132
  Impulse FP iterations last/mean/max 11/11.67/13
Step   500/2000   25.0% | t 25.000 | ETA 4m 9s | step 0.16s | KE 457.6629 | drift +0.09% | fluid 173.1373 | solid 284.5257
  Impulse FP iterations last/mean/max 11/11.65/13
Step   600/2000   30.0% | t 30.000 | ETA 3m 51s | step 0.15s | KE 457.0501 | drift -0.04% | fluid 169.6100 | solid 287.4401
  Impulse FP iterations last/mean/max 12/11.63/13
Step   700/2000   35.0% | t 35.000 | ETA 3m 31s | step 0.14s | KE 457.3224 | drift +0.02% | fluid 176.7540 | solid 280.5684
  Impulse FP iterations last/mean/max 11/11.62/13
Step   800/2000   40.0% | t 40.000 | ETA 3m 12s | step 0.15s | KE 457.6650 | drift +0.09% | fluid 175.3280 | solid 282.3369
  Impulse FP iterations last/mean/max 11/11.61/13
Step   900/2000   45.0% | t 45.000 | ETA 2m 55s | step 0.17s | KE 457.2384 | drift -0.00% | fluid 167.9612 | solid 289.2772
  Impulse FP iterations last/mean/max 12/11.62/13
Step  1000/2000   50.0% | t 50.000 | ETA 2m 39s | step 0.16s | KE 457.7175 | drift +0.10% | fluid 175.2421 | solid 282.4754
  Impulse FP iterations last/mean/max 11/11.61/13
Step  1100/2000   55.0% | t 55.000 | ETA 2m 24s | step 0.17s | KE 457.6595 | drift +0.09% | fluid 175.4334 | solid 282.2261
  Impulse FP iterations last/mean/max 11/11.62/13
Step  1200/2000   60.0% | t 60.000 | ETA 2m 8s | step 0.18s | KE 457.3564 | drift +0.02% | fluid 167.6451 | solid 289.7113
  Impulse FP iterations last/mean/max 12/11.62/13
Step  1300/2000   65.0% | t 65.000 | ETA 1m 52s | step 0.17s | KE 457.9233 | drift +0.15% | fluid 173.4579 | solid 284.4654
  Impulse FP iterations last/mean/max 12/11.62/13
Step  1400/2000   70.0% | t 70.000 | ETA 1m 36s | step 0.15s | KE 457.4297 | drift +0.04% | fluid 175.6262 | solid 281.8034
  Impulse FP iterations last/mean/max 11/11.61/13
Step  1500/2000   75.0% | t 75.000 | ETA 1m 20s | step 0.13s | KE 457.2167 | drift -0.01% | fluid 170.7568 | solid 286.4600
  Impulse FP iterations last/mean/max 11/11.61/13
Step  1600/2000   80.0% | t 80.000 | ETA 1m 3s | step 0.14s | KE 457.8359 | drift +0.13% | fluid 173.1915 | solid 284.6443
  Impulse FP iterations last/mean/max 12/11.61/13
Step  1700/2000   85.0% | t 85.000 | ETA 47s | step 0.15s | KE 457.1256 | drift -0.03% | fluid 174.2799 | solid 282.8457
  Impulse FP iterations last/mean/max 13/11.61/13
Step  1800/2000   90.0% | t 90.000 | ETA 31s | step 0.13s | KE 457.0730 | drift -0.04% | fluid 173.4798 | solid 283.5932
  Impulse FP iterations last/mean/max 12/11.61/13
Step  1900/2000   95.0% | t 95.000 | ETA 15s | step 0.12s | KE 457.7170 | drift +0.10% | fluid 172.0767 | solid 285.6403
  Impulse FP iterations last/mean/max 12/11.60/13
Solver finished successfully - good job!
Results saved successfully.

================== Run summary ==================
  Bodies:            2
  Triangles / nodes: 256 / 516
  Timesteps:         2000  (dt = 0.05)
  Simulated time:    0 -> 100
  First-step setup:  0.379 s
  Mean time/step:    0.1534 s  (excl. first step)
  Total wall time:   5m 7s
  Impulse FP iters last/mean/max: 12 / 11.604 / 13
  Approx impulse solves/step:     11.604
  Impulse start cache hits/direct: 1999 / 1
  Impulse global drift P/H:       8.649949e-9 / 4.874361e-2
  Impulse per-body max drift P/H: 1.239987e-8 / 1.754234e-3
  CPU cores:         256 available, 8 Rayon worker thread(s)
  Started:           2026-06-24 02:30:37
  Finished:          2026-06-24 02:35:45
  Output file:       /work/e643/e643/shared/multi_ellip/studies/departing_sphericity_sweep/runs/spheroid_prolate/homogeneous/spheroid_prolate_homogeneous_eps0p3_rho1_E0p5_sep8_run10_impulse_noproj/multiple_body_complete.dat
================================================
