
================ Simulation setup ================
  Run label:         /work/e643/e643/shared/multi_ellip/studies/departing_sphericity_sweep/runs/spheroid_prolate/homogeneous/spheroid_prolate_homogeneous_eps0p001_rho1_E0p5_sep8_run09_impulse_noproj/
  Started:           2026-06-24 02:26:38
  Input file:        /work/e643/e643/shared/multi_ellip/studies/departing_sphericity_sweep/runs/spheroid_prolate/homogeneous/spheroid_prolate_homogeneous_eps0p001_rho1_E0p5_sep8_run09_impulse_noproj/input.txt
  Output file:       /work/e643/e643/shared/multi_ellip/studies/departing_sphericity_sweep/runs/spheroid_prolate/homogeneous/spheroid_prolate_homogeneous_eps0p001_rho1_E0p5_sep8_run09_impulse_noproj/multiple_body_complete.dat
  Bodies:            2
  Fluid density:     1
  Mesh:              ndiv 2 -> 256 triangles / 516 nodes
  Simulated time:    0 -> 100  (dt = 0.05, ~2000 steps)
  Output cadence:    every 1 step(s)
  Output rows:       ~2001
  Progress cadence:  every 100 step(s)
  CPU cores:         256 available, 8 Rayon worker thread(s)
  Strong coupling:   disabled
  Impulse scheme:    enabled
  Hamiltonian step:  disabled
  Hamiltonian midpt: disabled
  Variational step:  disabled
  Energy projection: disabled
  Projection particular metric: Euclidean
  Fluid KE gradient: disabled  (eps = 0.001, scale = 1, linear = 1, angular = 1)
  Fluid KE discrete gradient: disabled
  Impulse pair metric correction: disabled  (mode = pair discrete-gradient, cutoff = all pairs, inner/outer = 0/0, eps = 0.001, linear scale = 1, angular scale = 0)
  Impulse metric correction: disabled  (internal load constraint = disabled)
  Impulse variational defect probe: disabled
  Impulse quadratic pressure: disabled  (scale = 1)
  Added-mass stab:   disabled
  Exact BEM geometry: disabled
  Exact singular BEM: disabled
  Legacy singular SLP diagnostic: disabled
  Phi-dot blend:     0 (off)

  Solver guidance:
    - Strong coupling: use for stiff close-coupled runs; slower but more implicit.
    - Impulse scheme: use when impulse/momentum conservation or KE drift is the focus. Recommended.
    - Added-mass stab: use for higher mesh counts (ndiv > 3) to preserve stability - deprecated.
================================================
Solver starting - good luck!

Initial state:
  Body  1
    density:          1.000000
    shape axes ratio: (1.000000, 0.997006, 0.997006)
    initial KE ratio: 0.500000
    position:         (-4.000000, 0.000000, 0.000000)
    velocity:         (-0.177538, -2.624275, -4.969002)
    angular velocity: (1.463636, 3.712008, -4.853574)
    orientation:      (w=0.858180, i=-0.319547, j=-0.311483, k=0.253760)
  Body  2
    density:          1.000000
    shape axes ratio: (1.000000, 0.997006, 0.997006)
    initial KE ratio: 0.500000
    position:         (4.000000, 0.000000, 0.000000)
    velocity:         (-0.177297, -2.620720, -4.962271)
    angular velocity: (6.146597, 1.232798, -0.421874)
    orientation:      (w=0.803297, i=0.197215, j=-0.450982, k=0.335313)

Preparing first step: implicit scheme, no bootstrap passes required.
First step may take longer than later steps.

First step completed in 0.221 s.

Step   100/2000    5.0% | t 5.000 | ETA 3m 3s | step 0.12s | KE 271.6593 | drift +0.29% | fluid 72.4597 | solid 199.1996
  Impulse FP iterations last/mean/max 8/7.12/8
Step   200/2000   10.0% | t 10.000 | ETA 2m 57s | step 0.09s | KE 272.6455 | drift +0.65% | fluid 72.4796 | solid 200.1659
  Impulse FP iterations last/mean/max 7/7.17/8
Step   300/2000   15.0% | t 15.000 | ETA 2m 48s | step 0.10s | KE 273.8486 | drift +1.10% | fluid 72.4736 | solid 201.3749
  Impulse FP iterations last/mean/max 7/7.15/8
Step   400/2000   20.0% | t 20.000 | ETA 2m 39s | step 0.10s | KE 275.2814 | drift +1.63% | fluid 72.4616 | solid 202.8199
  Impulse FP iterations last/mean/max 7/7.12/8
Step   500/2000   25.0% | t 25.000 | ETA 2m 29s | step 0.10s | KE 276.9537 | drift +2.25% | fluid 72.5097 | solid 204.4439
  Impulse FP iterations last/mean/max 7/7.10/8
Step   600/2000   30.0% | t 30.000 | ETA 2m 19s | step 0.10s | KE 278.8940 | drift +2.96% | fluid 72.5048 | solid 206.3893
  Impulse FP iterations last/mean/max 7/7.11/8
Step   700/2000   35.0% | t 35.000 | ETA 2m 9s | step 0.09s | KE 281.1231 | drift +3.78% | fluid 72.4769 | solid 208.6462
  Impulse FP iterations last/mean/max 7/7.11/8
Step   800/2000   40.0% | t 40.000 | ETA 1m 59s | step 0.10s | KE 283.6558 | drift +4.72% | fluid 72.4690 | solid 211.1869
  Impulse FP iterations last/mean/max 7/7.11/8
Step   900/2000   45.0% | t 45.000 | ETA 1m 49s | step 0.10s | KE 286.5155 | drift +5.78% | fluid 72.4844 | solid 214.0311
  Impulse FP iterations last/mean/max 7/7.11/8
Step  1000/2000   50.0% | t 50.000 | ETA 1m 39s | step 0.11s | KE 289.7327 | drift +6.96% | fluid 72.5070 | solid 217.2257
  Impulse FP iterations last/mean/max 8/7.12/8
Step  1100/2000   55.0% | t 55.000 | ETA 1m 30s | step 0.10s | KE 293.3384 | drift +8.29% | fluid 72.4837 | solid 220.8547
  Impulse FP iterations last/mean/max 7/7.12/8
Step  1200/2000   60.0% | t 60.000 | ETA 1m 20s | step 0.09s | KE 297.3661 | drift +9.78% | fluid 72.4174 | solid 224.9487
  Impulse FP iterations last/mean/max 6/7.12/8
Step  1300/2000   65.0% | t 65.000 | ETA 1m 10s | step 0.09s | KE 301.8256 | drift +11.43% | fluid 72.4475 | solid 229.3782
  Impulse FP iterations last/mean/max 7/7.12/8
Step  1400/2000   70.0% | t 70.000 | ETA 1m 0s | step 0.09s | KE 306.7667 | drift +13.25% | fluid 72.4317 | solid 234.3350
  Impulse FP iterations last/mean/max 7/7.13/8
Step  1500/2000   75.0% | t 75.000 | ETA 50s | step 0.08s | KE 312.2087 | drift +15.26% | fluid 72.4894 | solid 239.7193
  Impulse FP iterations last/mean/max 6/7.13/8
Step  1600/2000   80.0% | t 80.000 | ETA 40s | step 0.10s | KE 318.2157 | drift +17.48% | fluid 72.4483 | solid 245.7674
  Impulse FP iterations last/mean/max 7/7.13/8
Step  1700/2000   85.0% | t 85.000 | ETA 30s | step 0.12s | KE 324.7933 | drift +19.91% | fluid 72.4695 | solid 252.3238
  Impulse FP iterations last/mean/max 8/7.13/8
Step  1800/2000   90.0% | t 90.000 | ETA 20s | step 0.12s | KE 331.9948 | drift +22.57% | fluid 72.4975 | solid 259.4973
  Impulse FP iterations last/mean/max 8/7.13/8
Step  1900/2000   95.0% | t 95.000 | ETA 10s | step 0.09s | KE 339.8754 | drift +25.47% | fluid 72.4540 | solid 267.4214
  Impulse FP iterations last/mean/max 7/7.13/8
Solver finished successfully - good job!
Results saved successfully.

================== Run summary ==================
  Bodies:            2
  Triangles / nodes: 256 / 516
  Timesteps:         2000  (dt = 0.05)
  Simulated time:    0 -> 100
  First-step setup:  0.221 s
  Mean time/step:    0.0997 s  (excl. first step)
  Total wall time:   3m 19s
  Impulse FP iters last/mean/max: 7 / 7.129 / 8
  Approx impulse solves/step:     7.129
  Impulse start cache hits/direct: 1999 / 1
  Impulse global drift P/H:       2.749615e-8 / 9.053848e-3
  Impulse per-body max drift P/H: 3.283515e-8 / 6.873961e-4
  CPU cores:         256 available, 8 Rayon worker thread(s)
  Started:           2026-06-24 02:26:38
  Finished:          2026-06-24 02:29:58
  Output file:       /work/e643/e643/shared/multi_ellip/studies/departing_sphericity_sweep/runs/spheroid_prolate/homogeneous/spheroid_prolate_homogeneous_eps0p001_rho1_E0p5_sep8_run09_impulse_noproj/multiple_body_complete.dat
================================================
