
================ Simulation setup ================
  Run label:         /work/e643/e643/shared/multi_ellip/studies/departing_sphericity_sweep/runs/triaxial/homogeneous/triaxial_homogeneous_eps0p0003_rho1_E0p5_sep8_run10_impulse_noproj/
  Started:           2026-06-24 02:23:18
  Input file:        /work/e643/e643/shared/multi_ellip/studies/departing_sphericity_sweep/runs/triaxial/homogeneous/triaxial_homogeneous_eps0p0003_rho1_E0p5_sep8_run10_impulse_noproj/input.txt
  Output file:       /work/e643/e643/shared/multi_ellip/studies/departing_sphericity_sweep/runs/triaxial/homogeneous/triaxial_homogeneous_eps0p0003_rho1_E0p5_sep8_run10_impulse_noproj/multiple_body_complete.dat
  Bodies:            2
  Fluid density:     1
  Mesh:              ndiv 2 -> 256 triangles / 516 nodes
  Simulated time:    0 -> 100  (dt = 0.05, ~2000 steps)
  Output cadence:    every 1 step(s)
  Output rows:       ~2001
  Progress cadence:  every 100 step(s)
  CPU cores:         256 available, 8 Rayon worker thread(s)
  Strong coupling:   disabled
  Impulse scheme:    enabled
  Hamiltonian step:  disabled
  Hamiltonian midpt: disabled
  Variational step:  disabled
  Energy projection: disabled
  Projection particular metric: Euclidean
  Fluid KE gradient: disabled  (eps = 0.001, scale = 1, linear = 1, angular = 1)
  Fluid KE discrete gradient: disabled
  Impulse pair metric correction: disabled  (mode = pair discrete-gradient, cutoff = all pairs, inner/outer = 0/0, eps = 0.001, linear scale = 1, angular scale = 0)
  Impulse metric correction: disabled  (internal load constraint = disabled)
  Impulse variational defect probe: disabled
  Impulse quadratic pressure: disabled  (scale = 1)
  Added-mass stab:   disabled
  Exact BEM geometry: disabled
  Exact singular BEM: disabled
  Legacy singular SLP diagnostic: disabled
  Phi-dot blend:     0 (off)

  Solver guidance:
    - Strong coupling: use for stiff close-coupled runs; slower but more implicit.
    - Impulse scheme: use when impulse/momentum conservation or KE drift is the focus. Recommended.
    - Added-mass stab: use for higher mesh counts (ndiv > 3) to preserve stability - deprecated.
================================================
Solver starting - good luck!

Initial state:
  Body  1
    density:          1.000000
    shape axes ratio: (1.000000, 0.999700, 0.999400)
    initial KE ratio: 0.500000
    position:         (-4.000000, 0.000000, 0.000000)
    velocity:         (4.991217, 0.358119, 2.558493)
    angular velocity: (-3.483733, -0.018967, 5.228925)
    orientation:      (w=-0.304688, i=-0.194678, j=0.400822, k=-0.841789)
  Body  2
    density:          1.000000
    shape axes ratio: (1.000000, 0.999700, 0.999400)
    initial KE ratio: 0.500000
    position:         (4.000000, 0.000000, 0.000000)
    velocity:         (4.990308, 0.358054, 2.558027)
    angular velocity: (6.003050, 0.398541, -1.811898)
    orientation:      (w=0.628664, i=0.001544, j=-0.321109, k=0.708285)

Preparing first step: implicit scheme, no bootstrap passes required.
First step may take longer than later steps.

First step completed in 0.300 s.

Step   100/2000    5.0% | t 5.000 | ETA 2m 51s | step 0.10s | KE 271.4457 | drift +0.34% | fluid 72.0862 | solid 199.3595
  Impulse FP iterations last/mean/max 7/6.45/7
Step   200/2000   10.0% | t 10.000 | ETA 2m 44s | step 0.09s | KE 274.5028 | drift +1.47% | fluid 72.0868 | solid 202.4160
  Impulse FP iterations last/mean/max 7/6.56/7
Step   300/2000   15.0% | t 15.000 | ETA 2m 37s | step 0.09s | KE 279.6984 | drift +3.39% | fluid 72.0861 | solid 207.6124
  Impulse FP iterations last/mean/max 7/6.62/7
Step   400/2000   20.0% | t 20.000 | ETA 2m 28s | step 0.09s | KE 287.0443 | drift +6.11% | fluid 72.0898 | solid 214.9546
  Impulse FP iterations last/mean/max 6/6.63/7
Step   500/2000   25.0% | t 25.000 | ETA 2m 19s | step 0.10s | KE 296.5521 | drift +9.62% | fluid 72.0911 | solid 224.4610
  Impulse FP iterations last/mean/max 7/6.68/7
Step   600/2000   30.0% | t 30.000 | ETA 2m 11s | step 0.10s | KE 308.2329 | drift +13.94% | fluid 72.0858 | solid 236.1471
  Impulse FP iterations last/mean/max 7/6.71/7
Step   700/2000   35.0% | t 35.000 | ETA 2m 2s | step 0.10s | KE 322.0940 | drift +19.07% | fluid 72.0953 | solid 249.9988
  Impulse FP iterations last/mean/max 7/6.74/7
Step   800/2000   40.0% | t 40.000 | ETA 1m 53s | step 0.10s | KE 338.1496 | drift +25.00% | fluid 72.0868 | solid 266.0628
  Impulse FP iterations last/mean/max 7/6.76/7
Step   900/2000   45.0% | t 45.000 | ETA 1m 44s | step 0.10s | KE 356.4043 | drift +31.75% | fluid 72.0907 | solid 284.3136
  Impulse FP iterations last/mean/max 7/6.78/7
Step  1000/2000   50.0% | t 50.000 | ETA 1m 35s | step 0.09s | KE 376.8682 | drift +39.31% | fluid 72.0920 | solid 304.7762
  Impulse FP iterations last/mean/max 7/6.80/7
Step  1100/2000   55.0% | t 55.000 | ETA 1m 25s | step 0.09s | KE 399.5526 | drift +47.70% | fluid 72.0855 | solid 327.4671
  Impulse FP iterations last/mean/max 7/6.82/7
Step  1200/2000   60.0% | t 60.000 | ETA 1m 16s | step 0.10s | KE 424.4580 | drift +56.91% | fluid 72.0912 | solid 352.3668
  Impulse FP iterations last/mean/max 7/6.83/7
Step  1300/2000   65.0% | t 65.000 | ETA 1m 7s | step 0.09s | KE 451.6013 | drift +66.94% | fluid 72.0859 | solid 379.5154
  Impulse FP iterations last/mean/max 7/6.84/7
Step  1400/2000   70.0% | t 70.000 | ETA 57s | step 0.10s | KE 480.9826 | drift +77.80% | fluid 72.0846 | solid 408.8979
  Impulse FP iterations last/mean/max 7/6.85/7
Step  1500/2000   75.0% | t 75.000 | ETA 47s | step 0.08s | KE 512.6093 | drift +89.49% | fluid 72.0903 | solid 440.5191
  Impulse FP iterations last/mean/max 7/6.86/7
Step  1600/2000   80.0% | t 80.000 | ETA 37s | step 0.08s | KE 546.4926 | drift +102.02% | fluid 72.0900 | solid 474.4026
  Impulse FP iterations last/mean/max 7/6.87/7
Step  1700/2000   85.0% | t 85.000 | ETA 27s | step 0.07s | KE 582.6426 | drift +115.38% | fluid 72.0855 | solid 510.5571
  Impulse FP iterations last/mean/max 7/6.88/7
Step  1800/2000   90.0% | t 90.000 | ETA 18s | step 0.07s | KE 621.0582 | drift +129.58% | fluid 72.0842 | solid 548.9740
  Impulse FP iterations last/mean/max 7/6.89/8
Step  1900/2000   95.0% | t 95.000 | ETA 9s | step 0.07s | KE 661.7452 | drift +144.62% | fluid 72.0910 | solid 589.6542
  Impulse FP iterations last/mean/max 7/6.89/8
Solver finished successfully - good job!
Results saved successfully.

================== Run summary ==================
  Bodies:            2
  Triangles / nodes: 256 / 516
  Timesteps:         2000  (dt = 0.05)
  Simulated time:    0 -> 100
  First-step setup:  0.300 s
  Mean time/step:    0.0896 s  (excl. first step)
  Total wall time:   2m 59s
  Impulse FP iters last/mean/max: 7 / 6.900 / 8
  Approx impulse solves/step:     6.901
  Impulse start cache hits/direct: 1999 / 1
  Impulse global drift P/H:       3.761171e-9 / 1.040631e-1
  Impulse per-body max drift P/H: 9.521568e-9 / 8.501508e-3
  CPU cores:         256 available, 8 Rayon worker thread(s)
  Started:           2026-06-24 02:23:18
  Finished:          2026-06-24 02:26:19
  Output file:       /work/e643/e643/shared/multi_ellip/studies/departing_sphericity_sweep/runs/triaxial/homogeneous/triaxial_homogeneous_eps0p0003_rho1_E0p5_sep8_run10_impulse_noproj/multiple_body_complete.dat
================================================
