
================ Simulation setup ================
  Run label:         /work/e643/e643/shared/multi_ellip/studies/departing_sphericity_sweep/runs/triaxial/homogeneous/triaxial_homogeneous_eps0p01_rho1_E0p5_sep8_run09_impulse_noproj/
  Started:           2026-06-24 02:26:27
  Input file:        /work/e643/e643/shared/multi_ellip/studies/departing_sphericity_sweep/runs/triaxial/homogeneous/triaxial_homogeneous_eps0p01_rho1_E0p5_sep8_run09_impulse_noproj/input.txt
  Output file:       /work/e643/e643/shared/multi_ellip/studies/departing_sphericity_sweep/runs/triaxial/homogeneous/triaxial_homogeneous_eps0p01_rho1_E0p5_sep8_run09_impulse_noproj/multiple_body_complete.dat
  Bodies:            2
  Fluid density:     1
  Mesh:              ndiv 2 -> 256 triangles / 516 nodes
  Simulated time:    0 -> 100  (dt = 0.05, ~2000 steps)
  Output cadence:    every 1 step(s)
  Output rows:       ~2001
  Progress cadence:  every 100 step(s)
  CPU cores:         256 available, 8 Rayon worker thread(s)
  Strong coupling:   disabled
  Impulse scheme:    enabled
  Hamiltonian step:  disabled
  Hamiltonian midpt: disabled
  Variational step:  disabled
  Energy projection: disabled
  Projection particular metric: Euclidean
  Fluid KE gradient: disabled  (eps = 0.001, scale = 1, linear = 1, angular = 1)
  Fluid KE discrete gradient: disabled
  Impulse pair metric correction: disabled  (mode = pair discrete-gradient, cutoff = all pairs, inner/outer = 0/0, eps = 0.001, linear scale = 1, angular scale = 0)
  Impulse metric correction: disabled  (internal load constraint = disabled)
  Impulse variational defect probe: disabled
  Impulse quadratic pressure: disabled  (scale = 1)
  Added-mass stab:   disabled
  Exact BEM geometry: disabled
  Exact singular BEM: disabled
  Legacy singular SLP diagnostic: disabled
  Phi-dot blend:     0 (off)

  Solver guidance:
    - Strong coupling: use for stiff close-coupled runs; slower but more implicit.
    - Impulse scheme: use when impulse/momentum conservation or KE drift is the focus. Recommended.
    - Added-mass stab: use for higher mesh counts (ndiv > 3) to preserve stability - deprecated.
================================================
Solver starting - good luck!

Initial state:
  Body  1
    density:          1.000000
    shape axes ratio: (1.000000, 0.990099, 0.980296)
    initial KE ratio: 0.500000
    position:         (-4.000000, 0.000000, 0.000000)
    velocity:         (-5.572600, -0.676847, -0.096361)
    angular velocity: (-3.819673, 4.312426, 2.508287)
    orientation:      (w=0.180092, i=-0.254038, j=0.726574, k=0.612472)
  Body  2
    density:          1.000000
    shape axes ratio: (1.000000, 0.990099, 0.980296)
    initial KE ratio: 0.500000
    position:         (4.000000, 0.000000, 0.000000)
    velocity:         (-5.590386, -0.679007, -0.096668)
    angular velocity: (0.769277, 4.615542, 4.193257)
    orientation:      (w=0.978043, i=0.107164, j=0.166726, k=0.064418)

Preparing first step: implicit scheme, no bootstrap passes required.
First step may take longer than later steps.

First step completed in 0.301 s.

Step   100/2000    5.0% | t 5.000 | ETA 3m 5s | step 0.08s | KE 268.2035 | drift -0.65% | fluid 71.1265 | solid 197.0770
  Impulse FP iterations last/mean/max 7/7.76/8
Step   200/2000   10.0% | t 10.000 | ETA 2m 58s | step 0.12s | KE 267.1662 | drift -1.03% | fluid 71.1515 | solid 196.0147
  Impulse FP iterations last/mean/max 8/7.79/8
Step   300/2000   15.0% | t 15.000 | ETA 2m 53s | step 0.09s | KE 266.8783 | drift -1.14% | fluid 71.3134 | solid 195.5649
  Impulse FP iterations last/mean/max 7/7.81/8
Step   400/2000   20.0% | t 20.000 | ETA 2m 46s | step 0.12s | KE 267.3997 | drift -0.95% | fluid 71.3420 | solid 196.0577
  Impulse FP iterations last/mean/max 8/7.79/8
Step   500/2000   25.0% | t 25.000 | ETA 2m 37s | step 0.10s | KE 268.7688 | drift -0.44% | fluid 71.0684 | solid 197.7003
  Impulse FP iterations last/mean/max 7/7.75/8
Step   600/2000   30.0% | t 30.000 | ETA 2m 27s | step 0.10s | KE 270.8803 | drift +0.34% | fluid 71.4590 | solid 199.4213
  Impulse FP iterations last/mean/max 8/7.74/8
Step   700/2000   35.0% | t 35.000 | ETA 2m 17s | step 0.12s | KE 273.8538 | drift +1.44% | fluid 71.4715 | solid 202.3823
  Impulse FP iterations last/mean/max 8/7.73/8
Step   800/2000   40.0% | t 40.000 | ETA 2m 7s | step 0.12s | KE 277.6552 | drift +2.85% | fluid 71.3867 | solid 206.2685
  Impulse FP iterations last/mean/max 8/7.71/8
Step   900/2000   45.0% | t 45.000 | ETA 1m 57s | step 0.10s | KE 282.3549 | drift +4.59% | fluid 71.1458 | solid 211.2090
  Impulse FP iterations last/mean/max 7/7.69/8
Step  1000/2000   50.0% | t 50.000 | ETA 1m 46s | step 0.10s | KE 287.9957 | drift +6.68% | fluid 71.4403 | solid 216.5554
  Impulse FP iterations last/mean/max 7/7.67/8
Step  1100/2000   55.0% | t 55.000 | ETA 1m 35s | step 0.10s | KE 294.7872 | drift +9.20% | fluid 71.3247 | solid 223.4625
  Impulse FP iterations last/mean/max 7/7.66/8
Step  1200/2000   60.0% | t 60.000 | ETA 1m 25s | step 0.10s | KE 302.9490 | drift +12.22% | fluid 71.4204 | solid 231.5286
  Impulse FP iterations last/mean/max 7/7.65/8
Step  1300/2000   65.0% | t 65.000 | ETA 1m 14s | step 0.10s | KE 312.8602 | drift +15.89% | fluid 71.3088 | solid 241.5515
  Impulse FP iterations last/mean/max 8/7.65/8
Step  1400/2000   70.0% | t 70.000 | ETA 1m 4s | step 0.10s | KE 324.9096 | drift +20.36% | fluid 71.6079 | solid 253.3017
  Impulse FP iterations last/mean/max 7/7.65/8
Step  1500/2000   75.0% | t 75.000 | ETA 53s | step 0.12s | KE 339.8996 | drift +25.91% | fluid 71.2685 | solid 268.6311
  Impulse FP iterations last/mean/max 8/7.65/8
Step  1600/2000   80.0% | t 80.000 | ETA 42s | step 0.10s | KE 358.7994 | drift +32.91% | fluid 71.5110 | solid 287.2884
  Impulse FP iterations last/mean/max 7/7.63/8
Step  1700/2000   85.0% | t 85.000 | ETA 31s | step 0.10s | KE 383.7847 | drift +42.16% | fluid 71.4927 | solid 312.2920
  Impulse FP iterations last/mean/max 7/7.60/8
Step  1800/2000   90.0% | t 90.000 | ETA 21s | step 0.11s | KE 416.6112 | drift +54.32% | fluid 71.1940 | solid 345.4173
  Impulse FP iterations last/mean/max 7/7.58/8
Step  1900/2000   95.0% | t 95.000 | ETA 10s | step 0.10s | KE 457.3187 | drift +69.40% | fluid 71.1635 | solid 386.1552
  Impulse FP iterations last/mean/max 7/7.58/8
Solver finished successfully - good job!
Results saved successfully.

================== Run summary ==================
  Bodies:            2
  Triangles / nodes: 256 / 516
  Timesteps:         2000  (dt = 0.05)
  Simulated time:    0 -> 100
  First-step setup:  0.301 s
  Mean time/step:    0.1059 s  (excl. first step)
  Total wall time:   3m 31s
  Impulse FP iters last/mean/max: 7 / 7.573 / 8
  Approx impulse solves/step:     7.574
  Impulse start cache hits/direct: 1999 / 1
  Impulse global drift P/H:       1.245359e-8 / 1.137300e-2
  Impulse per-body max drift P/H: 3.434446e-8 / 1.568300e-2
  CPU cores:         256 available, 8 Rayon worker thread(s)
  Started:           2026-06-24 02:26:27
  Finished:          2026-06-24 02:29:59
  Output file:       /work/e643/e643/shared/multi_ellip/studies/departing_sphericity_sweep/runs/triaxial/homogeneous/triaxial_homogeneous_eps0p01_rho1_E0p5_sep8_run09_impulse_noproj/multiple_body_complete.dat
================================================
