
================ Simulation setup ================
  Run label:         /work/e643/e643/shared/multi_ellip/studies/departing_sphericity_sweep/runs/spheroid_oblate/homogeneous/spheroid_oblate_homogeneous_eps0p01_rho1_E0p5_sep8_run01_impulse_noproj/
  Started:           2026-06-24 02:26:25
  Input file:        /work/e643/e643/shared/multi_ellip/studies/departing_sphericity_sweep/runs/spheroid_oblate/homogeneous/spheroid_oblate_homogeneous_eps0p01_rho1_E0p5_sep8_run01_impulse_noproj/input.txt
  Output file:       /work/e643/e643/shared/multi_ellip/studies/departing_sphericity_sweep/runs/spheroid_oblate/homogeneous/spheroid_oblate_homogeneous_eps0p01_rho1_E0p5_sep8_run01_impulse_noproj/multiple_body_complete.dat
  Bodies:            2
  Fluid density:     1
  Mesh:              ndiv 2 -> 256 triangles / 516 nodes
  Simulated time:    0 -> 100  (dt = 0.05, ~2000 steps)
  Output cadence:    every 1 step(s)
  Output rows:       ~2001
  Progress cadence:  every 100 step(s)
  CPU cores:         256 available, 8 Rayon worker thread(s)
  Strong coupling:   disabled
  Impulse scheme:    enabled
  Hamiltonian step:  disabled
  Hamiltonian midpt: disabled
  Variational step:  disabled
  Energy projection: disabled
  Projection particular metric: Euclidean
  Fluid KE gradient: disabled  (eps = 0.001, scale = 1, linear = 1, angular = 1)
  Fluid KE discrete gradient: disabled
  Impulse pair metric correction: disabled  (mode = pair discrete-gradient, cutoff = all pairs, inner/outer = 0/0, eps = 0.001, linear scale = 1, angular scale = 0)
  Impulse metric correction: disabled  (internal load constraint = disabled)
  Impulse variational defect probe: disabled
  Impulse quadratic pressure: disabled  (scale = 1)
  Added-mass stab:   disabled
  Exact BEM geometry: disabled
  Exact singular BEM: disabled
  Legacy singular SLP diagnostic: disabled
  Phi-dot blend:     0 (off)

  Solver guidance:
    - Strong coupling: use for stiff close-coupled runs; slower but more implicit.
    - Impulse scheme: use when impulse/momentum conservation or KE drift is the focus. Recommended.
    - Added-mass stab: use for higher mesh counts (ndiv > 3) to preserve stability - deprecated.
================================================
Solver starting - good luck!

Initial state:
  Body  1
    density:          1.000000
    shape axes ratio: (1.000000, 1.000000, 0.970590)
    initial KE ratio: 0.500000
    position:         (-4.000000, 0.000000, 0.000000)
    velocity:         (2.653630, 3.068629, -3.955426)
    angular velocity: (-1.180115, -1.850565, -5.887373)
    orientation:      (w=-0.744963, i=-0.482413, j=0.417787, k=-0.194324)
  Body  2
    density:          1.000000
    shape axes ratio: (1.000000, 1.000000, 0.970590)
    initial KE ratio: 0.500000
    position:         (4.000000, 0.000000, 0.000000)
    velocity:         (2.621714, 3.031721, -3.907852)
    angular velocity: (5.570469, -2.499353, 1.483756)
    orientation:      (w=-0.448496, i=-0.443054, j=-0.137972, k=0.763883)

Preparing first step: implicit scheme, no bootstrap passes required.
First step may take longer than later steps.

First step completed in 0.248 s.

Step   100/2000    5.0% | t 5.000 | ETA 3m 18s | step 0.09s | KE 282.0520 | drift +3.26% | fluid 74.4301 | solid 207.6219
  Impulse FP iterations last/mean/max 7/7.71/8
Step   200/2000   10.0% | t 10.000 | ETA 3m 5s | step 0.10s | KE 291.3982 | drift +6.68% | fluid 73.9754 | solid 217.4229
  Impulse FP iterations last/mean/max 7/7.61/8
Step   300/2000   15.0% | t 15.000 | ETA 2m 54s | step 0.10s | KE 300.6526 | drift +10.07% | fluid 74.2838 | solid 226.3688
  Impulse FP iterations last/mean/max 8/7.57/8
Step   400/2000   20.0% | t 20.000 | ETA 2m 43s | step 0.09s | KE 309.7010 | drift +13.38% | fluid 74.1617 | solid 235.5393
  Impulse FP iterations last/mean/max 7/7.53/8
Step   500/2000   25.0% | t 25.000 | ETA 2m 32s | step 0.09s | KE 318.1339 | drift +16.47% | fluid 74.4549 | solid 243.6791
  Impulse FP iterations last/mean/max 7/7.50/8
Step   600/2000   30.0% | t 30.000 | ETA 2m 22s | step 0.10s | KE 325.9561 | drift +19.33% | fluid 74.2787 | solid 251.6774
  Impulse FP iterations last/mean/max 8/7.49/8
Step   700/2000   35.0% | t 35.000 | ETA 2m 11s | step 0.09s | KE 332.7355 | drift +21.81% | fluid 74.9661 | solid 257.7694
  Impulse FP iterations last/mean/max 7/7.46/8
Step   800/2000   40.0% | t 40.000 | ETA 2m 1s | step 0.11s | KE 338.7462 | drift +24.01% | fluid 74.8419 | solid 263.9044
  Impulse FP iterations last/mean/max 8/7.46/8
Step   900/2000   45.0% | t 45.000 | ETA 1m 51s | step 0.10s | KE 343.8899 | drift +25.90% | fluid 74.2964 | solid 269.5935
  Impulse FP iterations last/mean/max 7/7.44/8
Step  1000/2000   50.0% | t 50.000 | ETA 1m 40s | step 0.10s | KE 347.9400 | drift +27.38% | fluid 74.2239 | solid 273.7161
  Impulse FP iterations last/mean/max 7/7.43/8
Step  1100/2000   55.0% | t 55.000 | ETA 1m 30s | step 0.09s | KE 351.0439 | drift +28.52% | fluid 74.1934 | solid 276.8505
  Impulse FP iterations last/mean/max 7/7.42/8
Step  1200/2000   60.0% | t 60.000 | ETA 1m 19s | step 0.09s | KE 353.3870 | drift +29.37% | fluid 73.9776 | solid 279.4094
  Impulse FP iterations last/mean/max 7/7.42/8
Step  1300/2000   65.0% | t 65.000 | ETA 1m 9s | step 0.09s | KE 354.8794 | drift +29.92% | fluid 74.3156 | solid 280.5638
  Impulse FP iterations last/mean/max 7/7.41/8
Step  1400/2000   70.0% | t 70.000 | ETA 59s | step 0.09s | KE 355.8169 | drift +30.26% | fluid 74.4307 | solid 281.3863
  Impulse FP iterations last/mean/max 7/7.40/8
Step  1500/2000   75.0% | t 75.000 | ETA 49s | step 0.10s | KE 356.4859 | drift +30.51% | fluid 74.1207 | solid 282.3652
  Impulse FP iterations last/mean/max 7/7.39/8
Step  1600/2000   80.0% | t 80.000 | ETA 39s | step 0.09s | KE 356.5490 | drift +30.53% | fluid 74.7466 | solid 281.8025
  Impulse FP iterations last/mean/max 7/7.38/8
Step  1700/2000   85.0% | t 85.000 | ETA 29s | step 0.10s | KE 356.7155 | drift +30.59% | fluid 74.5981 | solid 282.1173
  Impulse FP iterations last/mean/max 7/7.37/8
Step  1800/2000   90.0% | t 90.000 | ETA 19s | step 0.10s | KE 356.7903 | drift +30.62% | fluid 74.2422 | solid 282.5480
  Impulse FP iterations last/mean/max 7/7.36/8
Step  1900/2000   95.0% | t 95.000 | ETA 9s | step 0.10s | KE 356.6984 | drift +30.59% | fluid 74.4465 | solid 282.2519
  Impulse FP iterations last/mean/max 7/7.35/8
Solver finished successfully - good job!
Results saved successfully.

================== Run summary ==================
  Bodies:            2
  Triangles / nodes: 256 / 516
  Timesteps:         2000  (dt = 0.05)
  Simulated time:    0 -> 100
  First-step setup:  0.248 s
  Mean time/step:    0.0982 s  (excl. first step)
  Total wall time:   3m 16s
  Impulse FP iters last/mean/max: 7 / 7.337 / 8
  Approx impulse solves/step:     7.337
  Impulse start cache hits/direct: 1999 / 1
  Impulse global drift P/H:       2.067513e-8 / 2.670455e-2
  Impulse per-body max drift P/H: 1.226503e-7 / 4.307468e-3
  CPU cores:         256 available, 8 Rayon worker thread(s)
  Started:           2026-06-24 02:26:25
  Finished:          2026-06-24 02:29:42
  Output file:       /work/e643/e643/shared/multi_ellip/studies/departing_sphericity_sweep/runs/spheroid_oblate/homogeneous/spheroid_oblate_homogeneous_eps0p01_rho1_E0p5_sep8_run01_impulse_noproj/multiple_body_complete.dat
================================================
