
================ Simulation setup ================
  Run label:         /work/e643/e643/shared/multi_ellip/studies/two_body_paper_sweeps/runs/spheroid_1_0p7_0p7/spheroid_1_0p7_0p7_rho0p1_E11_sep3_run04_impulse_noproj/
  Started:           2026-06-24 02:06:38
  Input file:        /work/e643/e643/shared/multi_ellip/studies/two_body_paper_sweeps/runs/spheroid_1_0p7_0p7/spheroid_1_0p7_0p7_rho0p1_E11_sep3_run04_impulse_noproj/input.txt
  Output file:       /work/e643/e643/shared/multi_ellip/studies/two_body_paper_sweeps/runs/spheroid_1_0p7_0p7/spheroid_1_0p7_0p7_rho0p1_E11_sep3_run04_impulse_noproj/multiple_body_complete.dat
  Bodies:            2
  Fluid density:     1
  Mesh:              ndiv 2 -> 256 triangles / 516 nodes
  Simulated time:    0 -> 100  (dt = 0.05, ~2000 steps)
  Output cadence:    every 1 step(s)
  Output rows:       ~2001
  Progress cadence:  every 100 step(s)
  CPU cores:         256 available, 8 Rayon worker thread(s)
  Strong coupling:   disabled
  Impulse scheme:    enabled
  Hamiltonian step:  disabled
  Hamiltonian midpt: disabled
  Variational step:  disabled
  Energy projection: disabled
  Projection particular metric: Euclidean
  Fluid KE gradient: disabled  (eps = 0.001, scale = 1, linear = 1, angular = 1)
  Fluid KE discrete gradient: disabled
  Impulse pair metric correction: disabled  (mode = pair discrete-gradient, cutoff = all pairs, inner/outer = 0/0, eps = 0.001, linear scale = 1, angular scale = 0)
  Impulse metric correction: disabled  (internal load constraint = disabled)
  Impulse variational defect probe: disabled
  Impulse quadratic pressure: disabled  (scale = 1)
  Added-mass stab:   disabled
  Exact BEM geometry: disabled
  Exact singular BEM: disabled
  Legacy singular SLP diagnostic: disabled
  Phi-dot blend:     0 (off)

  Solver guidance:
    - Strong coupling: use for stiff close-coupled runs; slower but more implicit.
    - Impulse scheme: use when impulse/momentum conservation or KE drift is the focus. Recommended.
    - Added-mass stab: use for higher mesh counts (ndiv > 3) to preserve stability - deprecated.
================================================
Solver starting - good luck!

Initial state:
  Body  1
    density:          0.100000
    shape axes ratio: (1.000000, 0.700000, 0.700000)
    initial KE ratio: 11.000000
    position:         (-1.500000, 0.000000, 0.000000)
    velocity:         (0.033464, 1.079365, 0.186141)
    angular velocity: (5.903545, 1.475337, 1.565232)
    orientation:      (w=-0.616547, i=0.320353, j=-0.207996, k=0.688463)
  Body  2
    density:          0.100000
    shape axes ratio: (1.000000, 0.700000, 0.700000)
    initial KE ratio: 11.000000
    position:         (1.500000, 0.000000, 0.000000)
    velocity:         (0.037944, 1.223845, 0.211058)
    angular velocity: (3.444159, 1.643484, -4.991507)
    orientation:      (w=-0.227028, i=-0.482200, j=0.833633, k=0.144903)

Preparing first step: implicit scheme, no bootstrap passes required.
First step may take longer than later steps.

First step completed in 0.418 s.

Step   100/2000    5.0% | t 5.000 | ETA 8m 3s | step 0.27s | KE 19.7099 | drift +28.32% | fluid 8.2723 | solid 11.4376
  Impulse FP iterations last/mean/max 18/17.40/19
Step   200/2000   10.0% | t 10.000 | ETA 8m 5s | step 0.27s | KE 43.3763 | drift +182.40% | fluid 13.3821 | solid 29.9942
  Impulse FP iterations last/mean/max 19/18.29/21
Step   300/2000   15.0% | t 15.000 | ETA 7m 44s | step 0.27s | KE 68.9232 | drift +348.73% | fluid 13.4414 | solid 55.4818
  Impulse FP iterations last/mean/max 19/18.56/22
Step   400/2000   20.0% | t 20.000 | ETA 7m 17s | step 0.25s | KE 71.7528 | drift +367.15% | fluid 12.1837 | solid 59.5690
  Impulse FP iterations last/mean/max 18/18.61/22
Step   500/2000   25.0% | t 25.000 | ETA 6m 48s | step 0.28s | KE 71.0540 | drift +362.60% | fluid 11.5397 | solid 59.5143
  Impulse FP iterations last/mean/max 20/18.58/22
Step   600/2000   30.0% | t 30.000 | ETA 6m 19s | step 0.27s | KE 70.2755 | drift +357.53% | fluid 11.2398 | solid 59.0357
  Impulse FP iterations last/mean/max 19/18.53/22
Step   700/2000   35.0% | t 35.000 | ETA 5m 49s | step 0.25s | KE 69.7407 | drift +354.05% | fluid 11.1843 | solid 58.5565
  Impulse FP iterations last/mean/max 18/18.46/22
Step   800/2000   40.0% | t 40.000 | ETA 5m 21s | step 0.25s | KE 69.3202 | drift +351.31% | fluid 11.0130 | solid 58.3071
  Impulse FP iterations last/mean/max 17/18.38/22
Step   900/2000   45.0% | t 45.000 | ETA 4m 53s | step 0.26s | KE 69.0359 | drift +349.46% | fluid 11.0412 | solid 57.9947
  Impulse FP iterations last/mean/max 18/18.31/22
Step  1000/2000   50.0% | t 50.000 | ETA 4m 25s | step 0.25s | KE 68.7577 | drift +347.65% | fluid 10.9563 | solid 57.8014
  Impulse FP iterations last/mean/max 17/18.25/22
Step  1100/2000   55.0% | t 55.000 | ETA 3m 57s | step 0.24s | KE 68.6287 | drift +346.81% | fluid 10.9182 | solid 57.7105
  Impulse FP iterations last/mean/max 16/18.19/22
Step  1200/2000   60.0% | t 60.000 | ETA 3m 30s | step 0.23s | KE 68.4874 | drift +345.89% | fluid 10.9006 | solid 57.5868
  Impulse FP iterations last/mean/max 16/18.14/22
Step  1300/2000   65.0% | t 65.000 | ETA 3m 3s | step 0.24s | KE 68.4319 | drift +345.53% | fluid 10.9009 | solid 57.5311
  Impulse FP iterations last/mean/max 16/18.10/22
Step  1400/2000   70.0% | t 70.000 | ETA 2m 37s | step 0.21s | KE 68.3561 | drift +345.04% | fluid 10.8689 | solid 57.4872
  Impulse FP iterations last/mean/max 16/18.06/22
Step  1500/2000   75.0% | t 75.000 | ETA 2m 10s | step 0.25s | KE 68.3453 | drift +344.96% | fluid 10.9476 | solid 57.3976
  Impulse FP iterations last/mean/max 18/18.03/22
Step  1600/2000   80.0% | t 80.000 | ETA 1m 43s | step 0.19s | KE 68.2871 | drift +344.59% | fluid 10.8402 | solid 57.4469
  Impulse FP iterations last/mean/max 17/18.00/22
Step  1700/2000   85.0% | t 85.000 | ETA 1m 16s | step 0.15s | KE 68.2970 | drift +344.65% | fluid 10.9154 | solid 57.3817
  Impulse FP iterations last/mean/max 17/17.98/22
Step  1800/2000   90.0% | t 90.000 | ETA 49s | step 0.14s | KE 68.2387 | drift +344.27% | fluid 10.8542 | solid 57.3844
  Impulse FP iterations last/mean/max 16/17.96/22
Step  1900/2000   95.0% | t 95.000 | ETA 24s | step 0.15s | KE 68.2420 | drift +344.29% | fluid 10.8818 | solid 57.3602
  Impulse FP iterations last/mean/max 17/17.93/22
Solver finished successfully - good job!
Results saved successfully.

================== Run summary ==================
  Bodies:            2
  Triangles / nodes: 256 / 516
  Timesteps:         2000  (dt = 0.05)
  Simulated time:    0 -> 100
  First-step setup:  0.418 s
  Mean time/step:    0.2401 s  (excl. first step)
  Total wall time:   8m 0s
  Impulse FP iters last/mean/max: 16 / 17.917 / 22
  Approx impulse solves/step:     17.918
  Impulse start cache hits/direct: 1999 / 1
  Impulse global drift P/H:       6.655154e-8 / 9.005407e-1
  Impulse per-body max drift P/H: 1.386233e-7 / 8.188756e-1
  CPU cores:         256 available, 8 Rayon worker thread(s)
  Started:           2026-06-24 02:06:38
  Finished:          2026-06-24 02:14:39
  Output file:       /work/e643/e643/shared/multi_ellip/studies/two_body_paper_sweeps/runs/spheroid_1_0p7_0p7/spheroid_1_0p7_0p7_rho0p1_E11_sep3_run04_impulse_noproj/multiple_body_complete.dat
================================================
