
================ Simulation setup ================
  Run label:         /work/e643/e643/shared/multi_ellip/studies/departing_sphericity_sweep/runs/triaxial/homogeneous/triaxial_homogeneous_eps0p003_rho1_E0p5_sep8_run01_impulse_noproj/
  Started:           2026-06-24 02:26:26
  Input file:        /work/e643/e643/shared/multi_ellip/studies/departing_sphericity_sweep/runs/triaxial/homogeneous/triaxial_homogeneous_eps0p003_rho1_E0p5_sep8_run01_impulse_noproj/input.txt
  Output file:       /work/e643/e643/shared/multi_ellip/studies/departing_sphericity_sweep/runs/triaxial/homogeneous/triaxial_homogeneous_eps0p003_rho1_E0p5_sep8_run01_impulse_noproj/multiple_body_complete.dat
  Bodies:            2
  Fluid density:     1
  Mesh:              ndiv 2 -> 256 triangles / 516 nodes
  Simulated time:    0 -> 100  (dt = 0.05, ~2000 steps)
  Output cadence:    every 1 step(s)
  Output rows:       ~2001
  Progress cadence:  every 100 step(s)
  CPU cores:         256 available, 8 Rayon worker thread(s)
  Strong coupling:   disabled
  Impulse scheme:    enabled
  Hamiltonian step:  disabled
  Hamiltonian midpt: disabled
  Variational step:  disabled
  Energy projection: disabled
  Projection particular metric: Euclidean
  Fluid KE gradient: disabled  (eps = 0.001, scale = 1, linear = 1, angular = 1)
  Fluid KE discrete gradient: disabled
  Impulse pair metric correction: disabled  (mode = pair discrete-gradient, cutoff = all pairs, inner/outer = 0/0, eps = 0.001, linear scale = 1, angular scale = 0)
  Impulse metric correction: disabled  (internal load constraint = disabled)
  Impulse variational defect probe: disabled
  Impulse quadratic pressure: disabled  (scale = 1)
  Added-mass stab:   disabled
  Exact BEM geometry: disabled
  Exact singular BEM: disabled
  Legacy singular SLP diagnostic: disabled
  Phi-dot blend:     0 (off)

  Solver guidance:
    - Strong coupling: use for stiff close-coupled runs; slower but more implicit.
    - Impulse scheme: use when impulse/momentum conservation or KE drift is the focus. Recommended.
    - Added-mass stab: use for higher mesh counts (ndiv > 3) to preserve stability - deprecated.
================================================
Solver starting - good luck!

Initial state:
  Body  1
    density:          1.000000
    shape axes ratio: (1.000000, 0.997009, 0.994027)
    initial KE ratio: 0.500000
    position:         (-4.000000, 0.000000, 0.000000)
    velocity:         (1.767812, 5.134814, -1.446429)
    angular velocity: (0.509337, -6.230391, -0.633416)
    orientation:      (w=-0.442954, i=0.004748, j=-0.873302, k=0.202765)
  Body  2
    density:          1.000000
    shape axes ratio: (1.000000, 0.997009, 0.994027)
    initial KE ratio: 0.500000
    position:         (4.000000, 0.000000, 0.000000)
    velocity:         (1.769827, 5.140667, -1.448078)
    angular velocity: (-1.837252, -1.554186, -5.804087)
    orientation:      (w=0.248680, i=-0.109100, j=0.311463, k=-0.910630)

Preparing first step: implicit scheme, no bootstrap passes required.
First step may take longer than later steps.

First step completed in 0.248 s.

Step   100/2000    5.0% | t 5.000 | ETA 3m 21s | step 0.10s | KE 280.1564 | drift +3.29% | fluid 72.5918 | solid 207.5646
  Impulse FP iterations last/mean/max 7/7.88/8
Step   200/2000   10.0% | t 10.000 | ETA 3m 13s | step 0.11s | KE 290.6331 | drift +7.15% | fluid 72.5995 | solid 218.0336
  Impulse FP iterations last/mean/max 8/7.82/8
Step   300/2000   15.0% | t 15.000 | ETA 3m 4s | step 0.11s | KE 302.7363 | drift +11.62% | fluid 72.6077 | solid 230.1286
  Impulse FP iterations last/mean/max 8/7.80/8
Step   400/2000   20.0% | t 20.000 | ETA 2m 53s | step 0.11s | KE 316.5971 | drift +16.73% | fluid 72.5597 | solid 244.0374
  Impulse FP iterations last/mean/max 8/7.79/8
Step   500/2000   25.0% | t 25.000 | ETA 2m 42s | step 0.11s | KE 332.2974 | drift +22.52% | fluid 72.5601 | solid 259.7373
  Impulse FP iterations last/mean/max 8/7.78/8
Step   600/2000   30.0% | t 30.000 | ETA 2m 31s | step 0.12s | KE 349.9228 | drift +29.01% | fluid 72.5577 | solid 277.3651
  Impulse FP iterations last/mean/max 8/7.77/8
Step   700/2000   35.0% | t 35.000 | ETA 2m 21s | step 0.09s | KE 369.6224 | drift +36.28% | fluid 72.5098 | solid 297.1127
  Impulse FP iterations last/mean/max 6/7.77/8
Step   800/2000   40.0% | t 40.000 | ETA 2m 10s | step 0.11s | KE 391.4509 | drift +44.32% | fluid 72.6356 | solid 318.8153
  Impulse FP iterations last/mean/max 8/7.76/8
Step   900/2000   45.0% | t 45.000 | ETA 1m 59s | step 0.12s | KE 415.5897 | drift +53.22% | fluid 72.5855 | solid 343.0042
  Impulse FP iterations last/mean/max 8/7.77/8
Step  1000/2000   50.0% | t 50.000 | ETA 1m 48s | step 0.12s | KE 442.1137 | drift +63.00% | fluid 72.5858 | solid 369.5280
  Impulse FP iterations last/mean/max 8/7.77/8
Step  1100/2000   55.0% | t 55.000 | ETA 1m 38s | step 0.11s | KE 471.1648 | drift +73.71% | fluid 72.6025 | solid 398.5623
  Impulse FP iterations last/mean/max 8/7.78/8
Step  1200/2000   60.0% | t 60.000 | ETA 1m 27s | step 0.10s | KE 502.8915 | drift +85.41% | fluid 72.5293 | solid 430.3622
  Impulse FP iterations last/mean/max 7/7.78/8
Step  1300/2000   65.0% | t 65.000 | ETA 1m 16s | step 0.11s | KE 537.3995 | drift +98.14% | fluid 72.5271 | solid 464.8724
  Impulse FP iterations last/mean/max 7/7.79/8
Step  1400/2000   70.0% | t 70.000 | ETA 1m 5s | step 0.12s | KE 574.8441 | drift +111.94% | fluid 72.5519 | solid 502.2923
  Impulse FP iterations last/mean/max 8/7.77/8
Step  1500/2000   75.0% | t 75.000 | ETA 54s | step 0.12s | KE 615.3539 | drift +126.88% | fluid 72.5550 | solid 542.7989
  Impulse FP iterations last/mean/max 8/7.75/8
Step  1600/2000   80.0% | t 80.000 | ETA 43s | step 0.10s | KE 659.0886 | drift +143.00% | fluid 72.5806 | solid 586.5080
  Impulse FP iterations last/mean/max 7/7.73/8
Step  1700/2000   85.0% | t 85.000 | ETA 32s | step 0.09s | KE 706.2977 | drift +160.41% | fluid 72.5070 | solid 633.7907
  Impulse FP iterations last/mean/max 7/7.70/8
Step  1800/2000   90.0% | t 90.000 | ETA 21s | step 0.10s | KE 756.9493 | drift +179.08% | fluid 72.5638 | solid 684.3854
  Impulse FP iterations last/mean/max 7/7.67/8
Step  1900/2000   95.0% | t 95.000 | ETA 10s | step 0.09s | KE 811.2799 | drift +199.11% | fluid 72.6018 | solid 738.6781
  Impulse FP iterations last/mean/max 7/7.64/8
Solver finished successfully - good job!
Results saved successfully.

================== Run summary ==================
  Bodies:            2
  Triangles / nodes: 256 / 516
  Timesteps:         2000  (dt = 0.05)
  Simulated time:    0 -> 100
  First-step setup:  0.248 s
  Mean time/step:    0.1065 s  (excl. first step)
  Total wall time:   3m 33s
  Impulse FP iters last/mean/max: 7 / 7.618 / 8
  Approx impulse solves/step:     7.619
  Impulse start cache hits/direct: 1999 / 1
  Impulse global drift P/H:       2.338644e-8 / 3.411363e-2
  Impulse per-body max drift P/H: 2.608841e-8 / 3.940253e-3
  CPU cores:         256 available, 8 Rayon worker thread(s)
  Started:           2026-06-24 02:26:26
  Finished:          2026-06-24 02:29:59
  Output file:       /work/e643/e643/shared/multi_ellip/studies/departing_sphericity_sweep/runs/triaxial/homogeneous/triaxial_homogeneous_eps0p003_rho1_E0p5_sep8_run01_impulse_noproj/multiple_body_complete.dat
================================================
