
================ Simulation setup ================
  Run label:         /work/e643/e643/shared/multi_ellip/studies/departing_sphericity_sweep/runs/triaxial/homogeneous/triaxial_homogeneous_eps0p1_rho1_E0p5_sep8_run05_impulse_noproj/
  Started:           2026-06-24 02:30:21
  Input file:        /work/e643/e643/shared/multi_ellip/studies/departing_sphericity_sweep/runs/triaxial/homogeneous/triaxial_homogeneous_eps0p1_rho1_E0p5_sep8_run05_impulse_noproj/input.txt
  Output file:       /work/e643/e643/shared/multi_ellip/studies/departing_sphericity_sweep/runs/triaxial/homogeneous/triaxial_homogeneous_eps0p1_rho1_E0p5_sep8_run05_impulse_noproj/multiple_body_complete.dat
  Bodies:            2
  Fluid density:     1
  Mesh:              ndiv 2 -> 256 triangles / 516 nodes
  Simulated time:    0 -> 100  (dt = 0.05, ~2000 steps)
  Output cadence:    every 1 step(s)
  Output rows:       ~2001
  Progress cadence:  every 100 step(s)
  CPU cores:         256 available, 8 Rayon worker thread(s)
  Strong coupling:   disabled
  Impulse scheme:    enabled
  Hamiltonian step:  disabled
  Hamiltonian midpt: disabled
  Variational step:  disabled
  Energy projection: disabled
  Projection particular metric: Euclidean
  Fluid KE gradient: disabled  (eps = 0.001, scale = 1, linear = 1, angular = 1)
  Fluid KE discrete gradient: disabled
  Impulse pair metric correction: disabled  (mode = pair discrete-gradient, cutoff = all pairs, inner/outer = 0/0, eps = 0.001, linear scale = 1, angular scale = 0)
  Impulse metric correction: disabled  (internal load constraint = disabled)
  Impulse variational defect probe: disabled
  Impulse quadratic pressure: disabled  (scale = 1)
  Added-mass stab:   disabled
  Exact BEM geometry: disabled
  Exact singular BEM: disabled
  Legacy singular SLP diagnostic: disabled
  Phi-dot blend:     0 (off)

  Solver guidance:
    - Strong coupling: use for stiff close-coupled runs; slower but more implicit.
    - Impulse scheme: use when impulse/momentum conservation or KE drift is the focus. Recommended.
    - Added-mass stab: use for higher mesh counts (ndiv > 3) to preserve stability - deprecated.
================================================
Solver starting - good luck!

Initial state:
  Body  1
    density:          1.000000
    shape axes ratio: (1.000000, 0.909091, 0.826446)
    initial KE ratio: 0.500000
    position:         (-4.000000, 0.000000, 0.000000)
    velocity:         (3.043733, 4.612003, 1.114551)
    angular velocity: (-3.195634, 4.732894, -2.620317)
    orientation:      (w=0.701883, i=0.498033, j=-0.507241, k=0.045047)
  Body  2
    density:          1.000000
    shape axes ratio: (1.000000, 0.909091, 0.826446)
    initial KE ratio: 0.500000
    position:         (4.000000, 0.000000, 0.000000)
    velocity:         (3.108096, 4.709529, 1.138120)
    angular velocity: (-2.255549, -3.763255, -4.497647)
    orientation:      (w=0.133248, i=-0.612610, j=0.175537, k=-0.759040)

Preparing first step: implicit scheme, no bootstrap passes required.
First step may take longer than later steps.

First step completed in 0.269 s.

Step   100/2000    5.0% | t 5.000 | ETA 4m 1s | step 0.11s | KE 284.3474 | drift +0.27% | fluid 82.0018 | solid 202.3456
  Impulse FP iterations last/mean/max 9/8.98/9
Step   200/2000   10.0% | t 10.000 | ETA 3m 49s | step 0.13s | KE 282.6870 | drift -0.31% | fluid 79.8304 | solid 202.8567
  Impulse FP iterations last/mean/max 9/8.98/9
Step   300/2000   15.0% | t 15.000 | ETA 3m 37s | step 0.14s | KE 282.1196 | drift -0.51% | fluid 80.6868 | solid 201.4328
  Impulse FP iterations last/mean/max 9/8.98/9
Step   400/2000   20.0% | t 20.000 | ETA 3m 24s | step 0.12s | KE 282.8895 | drift -0.24% | fluid 80.6391 | solid 202.2504
  Impulse FP iterations last/mean/max 9/8.98/9
Step   500/2000   25.0% | t 25.000 | ETA 3m 12s | step 0.12s | KE 283.4963 | drift -0.03% | fluid 81.8868 | solid 201.6096
  Impulse FP iterations last/mean/max 9/8.98/9
Step   600/2000   30.0% | t 30.000 | ETA 2m 59s | step 0.12s | KE 282.0088 | drift -0.55% | fluid 80.4181 | solid 201.5907
  Impulse FP iterations last/mean/max 9/8.98/9
Step   700/2000   35.0% | t 35.000 | ETA 2m 46s | step 0.12s | KE 283.3576 | drift -0.08% | fluid 79.3916 | solid 203.9660
  Impulse FP iterations last/mean/max 9/8.98/9
Step   800/2000   40.0% | t 40.000 | ETA 2m 33s | step 0.13s | KE 282.8400 | drift -0.26% | fluid 80.5900 | solid 202.2499
  Impulse FP iterations last/mean/max 9/8.98/9
Step   900/2000   45.0% | t 45.000 | ETA 2m 21s | step 0.13s | KE 282.8441 | drift -0.26% | fluid 81.4093 | solid 201.4348
  Impulse FP iterations last/mean/max 9/8.98/9
Step  1000/2000   50.0% | t 50.000 | ETA 2m 8s | step 0.13s | KE 282.8296 | drift -0.26% | fluid 81.5489 | solid 201.2807
  Impulse FP iterations last/mean/max 9/8.98/9
Step  1100/2000   55.0% | t 55.000 | ETA 1m 55s | step 0.14s | KE 282.8480 | drift -0.26% | fluid 80.0256 | solid 202.8225
  Impulse FP iterations last/mean/max 9/8.99/9
Step  1200/2000   60.0% | t 60.000 | ETA 1m 42s | step 0.13s | KE 282.7498 | drift -0.29% | fluid 81.7495 | solid 201.0003
  Impulse FP iterations last/mean/max 9/8.99/9
Step  1300/2000   65.0% | t 65.000 | ETA 1m 29s | step 0.12s | KE 282.4728 | drift -0.39% | fluid 82.4077 | solid 200.0651
  Impulse FP iterations last/mean/max 9/8.99/10
Step  1400/2000   70.0% | t 70.000 | ETA 1m 17s | step 0.13s | KE 282.5654 | drift -0.36% | fluid 81.8198 | solid 200.7456
  Impulse FP iterations last/mean/max 9/8.99/10
Step  1500/2000   75.0% | t 75.000 | ETA 1m 4s | step 0.12s | KE 282.7431 | drift -0.29% | fluid 78.8553 | solid 203.8878
  Impulse FP iterations last/mean/max 8/8.99/10
Step  1600/2000   80.0% | t 80.000 | ETA 51s | step 0.13s | KE 282.8754 | drift -0.25% | fluid 79.1535 | solid 203.7219
  Impulse FP iterations last/mean/max 9/8.99/10
Step  1700/2000   85.0% | t 85.000 | ETA 38s | step 0.14s | KE 282.7799 | drift -0.28% | fluid 79.5729 | solid 203.2070
  Impulse FP iterations last/mean/max 9/8.99/10
Step  1800/2000   90.0% | t 90.000 | ETA 25s | step 0.11s | KE 282.9859 | drift -0.21% | fluid 81.1799 | solid 201.8060
  Impulse FP iterations last/mean/max 9/8.99/10
Step  1900/2000   95.0% | t 95.000 | ETA 12s | step 0.10s | KE 283.0426 | drift -0.19% | fluid 80.9566 | solid 202.0860
  Impulse FP iterations last/mean/max 9/8.99/10
Solver finished successfully - good job!
Results saved successfully.

================== Run summary ==================
  Bodies:            2
  Triangles / nodes: 256 / 516
  Timesteps:         2000  (dt = 0.05)
  Simulated time:    0 -> 100
  First-step setup:  0.269 s
  Mean time/step:    0.1258 s  (excl. first step)
  Total wall time:   4m 11s
  Impulse FP iters last/mean/max: 9 / 8.989 / 10
  Approx impulse solves/step:     8.990
  Impulse start cache hits/direct: 1999 / 1
  Impulse global drift P/H:       9.565051e-9 / 1.873666e-2
  Impulse per-body max drift P/H: 1.101985e-8 / 1.941945e-3
  CPU cores:         256 available, 8 Rayon worker thread(s)
  Started:           2026-06-24 02:30:21
  Finished:          2026-06-24 02:34:33
  Output file:       /work/e643/e643/shared/multi_ellip/studies/departing_sphericity_sweep/runs/triaxial/homogeneous/triaxial_homogeneous_eps0p1_rho1_E0p5_sep8_run05_impulse_noproj/multiple_body_complete.dat
================================================
