
================ Simulation setup ================
  Run label:         /work/e643/e643/shared/multi_ellip/studies/two_body_paper_sweeps/runs/ellipsoid_1_0p8_0p6/ellipsoid_1_0p8_0p6_rho0p03_E0p2_sep8_run02_impulse_noproj/
  Started:           2026-06-22 20:03:25
  Input file:        /work/e643/e643/shared/multi_ellip/studies/two_body_paper_sweeps/runs/ellipsoid_1_0p8_0p6/ellipsoid_1_0p8_0p6_rho0p03_E0p2_sep8_run02_impulse_noproj/input.txt
  Output file:       /work/e643/e643/shared/multi_ellip/studies/two_body_paper_sweeps/runs/ellipsoid_1_0p8_0p6/ellipsoid_1_0p8_0p6_rho0p03_E0p2_sep8_run02_impulse_noproj/multiple_body_complete.dat
  Bodies:            2
  Fluid density:     1
  Mesh:              ndiv 2 -> 256 triangles / 516 nodes
  Simulated time:    0 -> 100  (dt = 0.05, ~2000 steps)
  Output cadence:    every 1 step(s)
  Output rows:       ~2001
  Progress cadence:  every 100 step(s)
  CPU cores:         256 available, 8 Rayon worker thread(s)
  Strong coupling:   disabled
  Impulse scheme:    enabled
  Hamiltonian step:  disabled
  Hamiltonian midpt: disabled
  Variational step:  disabled
  Energy projection: disabled
  Projection particular metric: Euclidean
  Fluid KE gradient: disabled  (eps = 0.001, scale = 1, linear = 1, angular = 1)
  Fluid KE discrete gradient: disabled
  Impulse pair metric correction: disabled  (mode = pair discrete-gradient, cutoff = all pairs, inner/outer = 0/0, eps = 0.001, linear scale = 1, angular scale = 0)
  Impulse metric correction: disabled  (internal load constraint = disabled)
  Impulse variational defect probe: disabled
  Impulse quadratic pressure: disabled  (scale = 1)
  Added-mass stab:   disabled
  Exact BEM geometry: disabled
  Exact singular BEM: disabled
  Legacy singular SLP diagnostic: disabled
  Phi-dot blend:     0 (off)

  Solver guidance:
    - Strong coupling: use for stiff close-coupled runs; slower but more implicit.
    - Impulse scheme: use when impulse/momentum conservation or KE drift is the focus. Recommended.
    - Added-mass stab: use for higher mesh counts (ndiv > 3) to preserve stability - deprecated.
================================================
Solver starting - good luck!

Initial state:
  Body  1
    density:          0.030000
    shape axes ratio: (1.000000, 0.800000, 0.600000)
    initial KE ratio: 0.200000
    position:         (-4.000000, 0.000000, 0.000000)
    velocity:         (-1.285457, 4.872667, 7.448258)
    angular velocity: (4.866132, -0.203697, 3.969596)
    orientation:      (w=0.577350, i=0.577350, j=0.577350, k=0.000000)
  Body  2
    density:          0.030000
    shape axes ratio: (1.000000, 0.800000, 0.600000)
    initial KE ratio: 0.200000
    position:         (4.000000, 0.000000, 0.000000)
    velocity:         (-1.287333, 4.879778, 7.459127)
    angular velocity: (-3.322195, 5.331128, -0.143225)
    orientation:      (w=0.577350, i=-0.577350, j=0.000000, k=0.577350)

Preparing first step: implicit scheme, no bootstrap passes required.
First step may take longer than later steps.

First step completed in 0.566 s.

Step   100/2000    5.0% | t 5.000 | ETA 12m 43s | step 0.42s | KE 252.6952 | drift -1.01% | fluid 238.0983 | solid 14.5969
  Impulse FP iterations last/mean/max 30/30.00/30
Step   200/2000   10.0% | t 10.000 | ETA 11m 52s | step 0.37s | KE 252.9696 | drift -0.90% | fluid 235.3384 | solid 17.6312
  Impulse FP iterations last/mean/max 30/30.00/30
Step   300/2000   15.0% | t 15.000 | ETA 11m 6s | step 0.36s | KE 254.4368 | drift -0.33% | fluid 240.4619 | solid 13.9750
  Impulse FP iterations last/mean/max 30/30.00/30
Step   400/2000   20.0% | t 20.000 | ETA 10m 21s | step 0.36s | KE 253.3817 | drift -0.74% | fluid 238.4218 | solid 14.9600
  Impulse FP iterations last/mean/max 30/30.00/30
Step   500/2000   25.0% | t 25.000 | ETA 9m 34s | step 0.36s | KE 252.8726 | drift -0.94% | fluid 238.4066 | solid 14.4660
  Impulse FP iterations last/mean/max 30/30.00/30
Step   600/2000   30.0% | t 30.000 | ETA 8m 49s | step 0.37s | KE 254.6693 | drift -0.24% | fluid 238.8783 | solid 15.7911
  Impulse FP iterations last/mean/max 30/30.00/30
Step   700/2000   35.0% | t 35.000 | ETA 8m 7s | step 0.35s | KE 253.2681 | drift -0.78% | fluid 237.6667 | solid 15.6014
  Impulse FP iterations last/mean/max 30/30.00/30
Step   800/2000   40.0% | t 40.000 | ETA 7m 27s | step 0.35s | KE 251.2621 | drift -1.57% | fluid 237.0140 | solid 14.2480
  Impulse FP iterations last/mean/max 30/30.00/30
Step   900/2000   45.0% | t 45.000 | ETA 6m 48s | step 0.36s | KE 253.1428 | drift -0.83% | fluid 238.8906 | solid 14.2522
  Impulse FP iterations last/mean/max 30/30.00/30
Step  1000/2000   50.0% | t 50.000 | ETA 6m 10s | step 0.33s | KE 254.4549 | drift -0.32% | fluid 238.1318 | solid 16.3231
  Impulse FP iterations last/mean/max 30/30.00/30
Step  1100/2000   55.0% | t 55.000 | ETA 5m 32s | step 0.35s | KE 252.9198 | drift -0.92% | fluid 237.6417 | solid 15.2781
  Impulse FP iterations last/mean/max 30/30.00/30
Step  1200/2000   60.0% | t 60.000 | ETA 4m 55s | step 0.40s | KE 253.6828 | drift -0.62% | fluid 239.5447 | solid 14.1380
  Impulse FP iterations last/mean/max 30/30.00/30
Step  1300/2000   65.0% | t 65.000 | ETA 4m 17s | step 0.31s | KE 254.2777 | drift -0.39% | fluid 239.5976 | solid 14.6801
  Impulse FP iterations last/mean/max 30/30.00/30
Step  1400/2000   70.0% | t 70.000 | ETA 3m 37s | step 0.28s | KE 255.1470 | drift -0.05% | fluid 239.7481 | solid 15.3989
  Impulse FP iterations last/mean/max 30/30.00/30
Step  1500/2000   75.0% | t 75.000 | ETA 2m 58s | step 0.28s | KE 255.5457 | drift +0.11% | fluid 239.7229 | solid 15.8227
  Impulse FP iterations last/mean/max 30/30.00/30
Step  1600/2000   80.0% | t 80.000 | ETA 2m 20s | step 0.27s | KE 254.5651 | drift -0.28% | fluid 239.3813 | solid 15.1838
  Impulse FP iterations last/mean/max 30/30.00/30
Step  1700/2000   85.0% | t 85.000 | ETA 1m 44s | step 0.28s | KE 254.1538 | drift -0.44% | fluid 238.5111 | solid 15.6427
  Impulse FP iterations last/mean/max 30/30.00/30
Step  1800/2000   90.0% | t 90.000 | ETA 1m 8s | step 0.26s | KE 256.2721 | drift +0.39% | fluid 240.6267 | solid 15.6454
  Impulse FP iterations last/mean/max 30/30.00/30
Step  1900/2000   95.0% | t 95.000 | ETA 33s | step 0.24s | KE 255.5463 | drift +0.11% | fluid 239.3842 | solid 16.1620
  Impulse FP iterations last/mean/max 30/30.00/30
Solver finished successfully - good job!
Results saved successfully.

================== Run summary ==================
  Bodies:            2
  Triangles / nodes: 256 / 516
  Timesteps:         2000  (dt = 0.05)
  Simulated time:    0 -> 100
  First-step setup:  0.566 s
  Mean time/step:    0.3347 s  (excl. first step)
  Total wall time:   11m 9s
  Impulse FP iters last/mean/max: 30 / 29.998 / 30
  Approx impulse solves/step:     29.998
  Impulse start cache hits/direct: 1999 / 1
  Impulse global drift P/H:       6.277038e-4 / 2.963507e-1
  Impulse per-body max drift P/H: 6.441747e-4 / 5.545857e-3
  CPU cores:         256 available, 8 Rayon worker thread(s)
  Started:           2026-06-22 20:03:25
  Finished:          2026-06-22 20:14:36
  Output file:       /work/e643/e643/shared/multi_ellip/studies/two_body_paper_sweeps/runs/ellipsoid_1_0p8_0p6/ellipsoid_1_0p8_0p6_rho0p03_E0p2_sep8_run02_impulse_noproj/multiple_body_complete.dat
================================================
