
================ Simulation setup ================
  Run label:         /work/e643/e643/shared/multi_ellip/studies/two_body_paper_sweeps/runs/ellipsoid_1_0p8_0p6/ellipsoid_1_0p8_0p6_rho1_E30_sep3_run04_impulse_noproj/
  Started:           2026-06-24 01:44:18
  Input file:        /work/e643/e643/shared/multi_ellip/studies/two_body_paper_sweeps/runs/ellipsoid_1_0p8_0p6/ellipsoid_1_0p8_0p6_rho1_E30_sep3_run04_impulse_noproj/input.txt
  Output file:       /work/e643/e643/shared/multi_ellip/studies/two_body_paper_sweeps/runs/ellipsoid_1_0p8_0p6/ellipsoid_1_0p8_0p6_rho1_E30_sep3_run04_impulse_noproj/multiple_body_complete.dat
  Bodies:            2
  Fluid density:     1
  Mesh:              ndiv 2 -> 256 triangles / 516 nodes
  Simulated time:    0 -> 100  (dt = 0.05, ~2000 steps)
  Output cadence:    every 1 step(s)
  Output rows:       ~2001
  Progress cadence:  every 100 step(s)
  CPU cores:         256 available, 8 Rayon worker thread(s)
  Strong coupling:   disabled
  Impulse scheme:    enabled
  Hamiltonian step:  disabled
  Hamiltonian midpt: disabled
  Variational step:  disabled
  Energy projection: disabled
  Projection particular metric: Euclidean
  Fluid KE gradient: disabled  (eps = 0.001, scale = 1, linear = 1, angular = 1)
  Fluid KE discrete gradient: disabled
  Impulse pair metric correction: disabled  (mode = pair discrete-gradient, cutoff = all pairs, inner/outer = 0/0, eps = 0.001, linear scale = 1, angular scale = 0)
  Impulse metric correction: disabled  (internal load constraint = disabled)
  Impulse variational defect probe: disabled
  Impulse quadratic pressure: disabled  (scale = 1)
  Added-mass stab:   disabled
  Exact BEM geometry: disabled
  Exact singular BEM: disabled
  Legacy singular SLP diagnostic: disabled
  Phi-dot blend:     0 (off)

  Solver guidance:
    - Strong coupling: use for stiff close-coupled runs; slower but more implicit.
    - Impulse scheme: use when impulse/momentum conservation or KE drift is the focus. Recommended.
    - Added-mass stab: use for higher mesh counts (ndiv > 3) to preserve stability - deprecated.
================================================
Solver starting - good luck!

Initial state:
  Body  1
    density:          1.000000
    shape axes ratio: (1.000000, 0.800000, 0.600000)
    initial KE ratio: 30.000000
    position:         (-1.500000, 0.000000, 0.000000)
    velocity:         (-0.113465, 0.802094, -0.156644)
    angular velocity: (-1.170106, 2.127268, -5.795170)
    orientation:      (w=0.109975, i=0.497005, j=-0.517236, k=0.688011)
  Body  2
    density:          1.000000
    shape axes ratio: (1.000000, 0.800000, 0.600000)
    initial KE ratio: 30.000000
    position:         (1.500000, 0.000000, 0.000000)
    velocity:         (-0.112781, 0.797258, -0.155700)
    angular velocity: (1.433162, -2.376523, 5.637074)
    orientation:      (w=-0.221072, i=0.872878, j=-0.407954, k=-0.150944)

Preparing first step: implicit scheme, no bootstrap passes required.
First step may take longer than later steps.

First step completed in 0.292 s.

Step   100/2000    5.0% | t 5.000 | ETA 5m 14s | step 0.15s | KE 85.4408 | drift +0.10% | fluid 4.8894 | solid 80.5515
  Impulse FP iterations last/mean/max 11/11.51/12
Step   200/2000   10.0% | t 10.000 | ETA 4m 52s | step 0.15s | KE 85.3485 | drift -0.01% | fluid 6.3239 | solid 79.0246
  Impulse FP iterations last/mean/max 11/11.41/12
Step   300/2000   15.0% | t 15.000 | ETA 4m 34s | step 0.18s | KE 85.2922 | drift -0.08% | fluid 6.1825 | solid 79.1097
  Impulse FP iterations last/mean/max 12/11.34/12
Step   400/2000   20.0% | t 20.000 | ETA 4m 17s | step 0.15s | KE 85.2004 | drift -0.18% | fluid 4.8376 | solid 80.3628
  Impulse FP iterations last/mean/max 11/11.30/12
Step   500/2000   25.0% | t 25.000 | ETA 4m 0s | step 0.16s | KE 85.0966 | drift -0.30% | fluid 6.7417 | solid 78.3550
  Impulse FP iterations last/mean/max 11/11.25/12
Step   600/2000   30.0% | t 30.000 | ETA 3m 43s | step 0.16s | KE 85.0477 | drift -0.36% | fluid 6.0713 | solid 78.9764
  Impulse FP iterations last/mean/max 11/11.19/12
Step   700/2000   35.0% | t 35.000 | ETA 3m 25s | step 0.16s | KE 84.9873 | drift -0.43% | fluid 4.9238 | solid 80.0635
  Impulse FP iterations last/mean/max 11/11.14/12
Step   800/2000   40.0% | t 40.000 | ETA 3m 8s | step 0.15s | KE 84.9208 | drift -0.51% | fluid 6.8794 | solid 78.0414
  Impulse FP iterations last/mean/max 11/11.08/12
Step   900/2000   45.0% | t 45.000 | ETA 2m 51s | step 0.15s | KE 84.8950 | drift -0.54% | fluid 5.6745 | solid 79.2206
  Impulse FP iterations last/mean/max 11/11.04/12
Step  1000/2000   50.0% | t 50.000 | ETA 2m 33s | step 0.12s | KE 84.8671 | drift -0.57% | fluid 4.9689 | solid 79.8981
  Impulse FP iterations last/mean/max 11/11.02/12
Step  1100/2000   55.0% | t 55.000 | ETA 2m 17s | step 0.17s | KE 84.8194 | drift -0.63% | fluid 6.8898 | solid 77.9296
  Impulse FP iterations last/mean/max 11/10.99/12
Step  1200/2000   60.0% | t 60.000 | ETA 2m 2s | step 0.15s | KE 84.8034 | drift -0.65% | fluid 5.4778 | solid 79.3256
  Impulse FP iterations last/mean/max 11/10.96/12
Step  1300/2000   65.0% | t 65.000 | ETA 1m 46s | step 0.15s | KE 84.7917 | drift -0.66% | fluid 5.6679 | solid 79.1238
  Impulse FP iterations last/mean/max 11/10.94/12
Step  1400/2000   70.0% | t 70.000 | ETA 1m 31s | step 0.15s | KE 84.7623 | drift -0.70% | fluid 6.7184 | solid 78.0439
  Impulse FP iterations last/mean/max 11/10.92/12
Step  1500/2000   75.0% | t 75.000 | ETA 1m 16s | step 0.14s | KE 84.7566 | drift -0.70% | fluid 4.7479 | solid 80.0087
  Impulse FP iterations last/mean/max 10/10.90/12
Step  1600/2000   80.0% | t 80.000 | ETA 1m 0s | step 0.15s | KE 84.7386 | drift -0.72% | fluid 6.0854 | solid 78.6532
  Impulse FP iterations last/mean/max 11/10.89/12
Step  1700/2000   85.0% | t 85.000 | ETA 45s | step 0.14s | KE 84.7344 | drift -0.73% | fluid 6.5570 | solid 78.1774
  Impulse FP iterations last/mean/max 11/10.88/12
Step  1800/2000   90.0% | t 90.000 | ETA 30s | step 0.16s | KE 84.7201 | drift -0.75% | fluid 4.9466 | solid 79.7735
  Impulse FP iterations last/mean/max 11/10.87/12
Step  1900/2000   95.0% | t 95.000 | ETA 15s | step 0.16s | KE 84.7117 | drift -0.76% | fluid 6.4532 | solid 78.2586
  Impulse FP iterations last/mean/max 11/10.86/12
Solver finished successfully - good job!
Results saved successfully.

================== Run summary ==================
  Bodies:            2
  Triangles / nodes: 256 / 516
  Timesteps:         2000  (dt = 0.05)
  Simulated time:    0 -> 100
  First-step setup:  0.292 s
  Mean time/step:    0.1516 s  (excl. first step)
  Total wall time:   5m 3s
  Impulse FP iters last/mean/max: 11 / 10.856 / 12
  Approx impulse solves/step:     10.857
  Impulse start cache hits/direct: 1999 / 1
  Impulse global drift P/H:       3.957063e-8 / 1.117755e-1
  Impulse per-body max drift P/H: 7.831152e-8 / 1.045976e-2
  CPU cores:         256 available, 8 Rayon worker thread(s)
  Started:           2026-06-24 01:44:18
  Finished:          2026-06-24 01:49:22
  Output file:       /work/e643/e643/shared/multi_ellip/studies/two_body_paper_sweeps/runs/ellipsoid_1_0p8_0p6/ellipsoid_1_0p8_0p6_rho1_E30_sep3_run04_impulse_noproj/multiple_body_complete.dat
================================================
