
================ Simulation setup ================
  Run label:         /work/e643/e643/shared/multi_ellip/studies/two_body_paper_sweeps/runs/ellipsoid_1_0p8_0p6/ellipsoid_1_0p8_0p6_rho0p1_E11_sep8_run01_impulse_noproj/
  Started:           2026-06-22 20:03:24
  Input file:        /work/e643/e643/shared/multi_ellip/studies/two_body_paper_sweeps/runs/ellipsoid_1_0p8_0p6/ellipsoid_1_0p8_0p6_rho0p1_E11_sep8_run01_impulse_noproj/input.txt
  Output file:       /work/e643/e643/shared/multi_ellip/studies/two_body_paper_sweeps/runs/ellipsoid_1_0p8_0p6/ellipsoid_1_0p8_0p6_rho0p1_E11_sep8_run01_impulse_noproj/multiple_body_complete.dat
  Bodies:            2
  Fluid density:     1
  Mesh:              ndiv 2 -> 256 triangles / 516 nodes
  Simulated time:    0 -> 100  (dt = 0.05, ~2000 steps)
  Output cadence:    every 1 step(s)
  Output rows:       ~2001
  Progress cadence:  every 100 step(s)
  CPU cores:         256 available, 8 Rayon worker thread(s)
  Strong coupling:   disabled
  Impulse scheme:    enabled
  Hamiltonian step:  disabled
  Hamiltonian midpt: disabled
  Variational step:  disabled
  Energy projection: disabled
  Projection particular metric: Euclidean
  Fluid KE gradient: disabled  (eps = 0.001, scale = 1, linear = 1, angular = 1)
  Fluid KE discrete gradient: disabled
  Impulse pair metric correction: disabled  (mode = pair discrete-gradient, cutoff = all pairs, inner/outer = 0/0, eps = 0.001, linear scale = 1, angular scale = 0)
  Impulse metric correction: disabled  (internal load constraint = disabled)
  Impulse variational defect probe: disabled
  Impulse quadratic pressure: disabled  (scale = 1)
  Added-mass stab:   disabled
  Exact BEM geometry: disabled
  Exact singular BEM: disabled
  Legacy singular SLP diagnostic: disabled
  Phi-dot blend:     0 (off)

  Solver guidance:
    - Strong coupling: use for stiff close-coupled runs; slower but more implicit.
    - Impulse scheme: use when impulse/momentum conservation or KE drift is the focus. Recommended.
    - Added-mass stab: use for higher mesh counts (ndiv > 3) to preserve stability - deprecated.
================================================
Solver starting - good luck!

Initial state:
  Body  1
    density:          0.100000
    shape axes ratio: (1.000000, 0.800000, 0.600000)
    initial KE ratio: 11.000000
    position:         (-4.000000, 0.000000, 0.000000)
    velocity:         (-0.244207, 0.260176, -1.147907)
    angular velocity: (-3.851066, 4.829357, -1.151094)
    orientation:      (w=0.447214, i=0.894427, j=0.000000, k=0.000000)
  Body  2
    density:          0.100000
    shape axes ratio: (1.000000, 0.800000, 0.600000)
    initial KE ratio: 11.000000
    position:         (4.000000, 0.000000, 0.000000)
    velocity:         (-0.263807, 0.281059, -1.240042)
    angular velocity: (-2.439191, -3.816808, 4.354393)
    orientation:      (w=0.707107, i=0.000000, j=0.707107, k=0.000000)

Preparing first step: implicit scheme, no bootstrap passes required.
First step may take longer than later steps.

First step completed in 0.320 s.

Step   100/2000    5.0% | t 5.000 | ETA 7m 51s | step 0.27s | KE 17.6269 | drift +0.64% | fluid 10.2484 | solid 7.3785
  Impulse FP iterations last/mean/max 19/19.16/21
Step   200/2000   10.0% | t 10.000 | ETA 7m 32s | step 0.24s | KE 17.8350 | drift +1.83% | fluid 10.0823 | solid 7.7527
  Impulse FP iterations last/mean/max 20/19.36/22
Step   300/2000   15.0% | t 15.000 | ETA 7m 0s | step 0.22s | KE 18.1954 | drift +3.89% | fluid 10.8434 | solid 7.3520
  Impulse FP iterations last/mean/max 19/19.22/22
Step   400/2000   20.0% | t 20.000 | ETA 6m 35s | step 0.25s | KE 18.5109 | drift +5.69% | fluid 11.3602 | solid 7.1507
  Impulse FP iterations last/mean/max 19/19.28/23
Step   500/2000   25.0% | t 25.000 | ETA 6m 7s | step 0.22s | KE 18.6733 | drift +6.62% | fluid 10.0617 | solid 8.6116
  Impulse FP iterations last/mean/max 19/19.26/23
Step   600/2000   30.0% | t 30.000 | ETA 5m 38s | step 0.25s | KE 18.8399 | drift +7.57% | fluid 11.1884 | solid 7.6515
  Impulse FP iterations last/mean/max 19/19.21/23
Step   700/2000   35.0% | t 35.000 | ETA 5m 12s | step 0.24s | KE 18.9119 | drift +7.98% | fluid 11.2658 | solid 7.6461
  Impulse FP iterations last/mean/max 20/19.26/23
Step   800/2000   40.0% | t 40.000 | ETA 4m 46s | step 0.24s | KE 18.9218 | drift +8.03% | fluid 10.8129 | solid 8.1090
  Impulse FP iterations last/mean/max 21/19.22/23
Step   900/2000   45.0% | t 45.000 | ETA 4m 22s | step 0.25s | KE 18.9888 | drift +8.42% | fluid 12.1256 | solid 6.8632
  Impulse FP iterations last/mean/max 19/19.24/23
Step  1000/2000   50.0% | t 50.000 | ETA 3m 57s | step 0.21s | KE 18.9947 | drift +8.45% | fluid 11.3542 | solid 7.6405
  Impulse FP iterations last/mean/max 20/19.22/23
Step  1100/2000   55.0% | t 55.000 | ETA 3m 33s | step 0.26s | KE 19.0851 | drift +8.97% | fluid 12.0423 | solid 7.0428
  Impulse FP iterations last/mean/max 20/19.24/23
Step  1200/2000   60.0% | t 60.000 | ETA 3m 9s | step 0.22s | KE 19.1212 | drift +9.17% | fluid 12.1342 | solid 6.9869
  Impulse FP iterations last/mean/max 19/19.25/23
Step  1300/2000   65.0% | t 65.000 | ETA 2m 45s | step 0.26s | KE 19.0852 | drift +8.97% | fluid 11.1053 | solid 7.9799
  Impulse FP iterations last/mean/max 19/19.25/23
Step  1400/2000   70.0% | t 70.000 | ETA 2m 21s | step 0.20s | KE 19.1072 | drift +9.09% | fluid 12.1802 | solid 6.9270
  Impulse FP iterations last/mean/max 19/19.25/23
Step  1500/2000   75.0% | t 75.000 | ETA 1m 57s | step 0.24s | KE 19.0620 | drift +8.83% | fluid 11.6895 | solid 7.3725
  Impulse FP iterations last/mean/max 21/19.24/23
Step  1600/2000   80.0% | t 80.000 | ETA 1m 33s | step 0.23s | KE 19.1153 | drift +9.14% | fluid 12.1494 | solid 6.9660
  Impulse FP iterations last/mean/max 20/19.23/23
Step  1700/2000   85.0% | t 85.000 | ETA 1m 10s | step 0.22s | KE 19.1593 | drift +9.39% | fluid 12.4378 | solid 6.7215
  Impulse FP iterations last/mean/max 18/19.24/23
Step  1800/2000   90.0% | t 90.000 | ETA 46s | step 0.23s | KE 19.1245 | drift +9.19% | fluid 11.3845 | solid 7.7400
  Impulse FP iterations last/mean/max 18/19.24/23
Step  1900/2000   95.0% | t 95.000 | ETA 23s | step 0.19s | KE 19.1402 | drift +9.28% | fluid 12.2539 | solid 6.8862
  Impulse FP iterations last/mean/max 18/19.25/23
Solver finished successfully - good job!
Results saved successfully.

================== Run summary ==================
  Bodies:            2
  Triangles / nodes: 256 / 516
  Timesteps:         2000  (dt = 0.05)
  Simulated time:    0 -> 100
  First-step setup:  0.320 s
  Mean time/step:    0.2322 s  (excl. first step)
  Total wall time:   7m 44s
  Impulse FP iters last/mean/max: 19 / 19.243 / 23
  Approx impulse solves/step:     19.243
  Impulse start cache hits/direct: 1999 / 1
  Impulse global drift P/H:       4.384191e-8 / 1.286570e-2
  Impulse per-body max drift P/H: 7.785091e-8 / 8.761591e-3
  CPU cores:         256 available, 8 Rayon worker thread(s)
  Started:           2026-06-22 20:03:24
  Finished:          2026-06-22 20:11:09
  Output file:       /work/e643/e643/shared/multi_ellip/studies/two_body_paper_sweeps/runs/ellipsoid_1_0p8_0p6/ellipsoid_1_0p8_0p6_rho0p1_E11_sep8_run01_impulse_noproj/multiple_body_complete.dat
================================================
