
================ Simulation setup ================
  Run label:         /work/e643/e643/shared/multi_ellip/studies/two_body_paper_sweeps/runs/spheroid_1_0p7_0p7/spheroid_1_0p7_0p7_rho1_E1p5_sep3_run04_impulse_noproj/
  Started:           2026-06-24 01:34:38
  Input file:        /work/e643/e643/shared/multi_ellip/studies/two_body_paper_sweeps/runs/spheroid_1_0p7_0p7/spheroid_1_0p7_0p7_rho1_E1p5_sep3_run04_impulse_noproj/input.txt
  Output file:       /work/e643/e643/shared/multi_ellip/studies/two_body_paper_sweeps/runs/spheroid_1_0p7_0p7/spheroid_1_0p7_0p7_rho1_E1p5_sep3_run04_impulse_noproj/multiple_body_complete.dat
  Bodies:            2
  Fluid density:     1
  Mesh:              ndiv 2 -> 256 triangles / 516 nodes
  Simulated time:    0 -> 100  (dt = 0.05, ~2000 steps)
  Output cadence:    every 1 step(s)
  Output rows:       ~2001
  Progress cadence:  every 100 step(s)
  CPU cores:         256 available, 8 Rayon worker thread(s)
  Strong coupling:   disabled
  Impulse scheme:    enabled
  Hamiltonian step:  disabled
  Hamiltonian midpt: disabled
  Variational step:  disabled
  Energy projection: disabled
  Projection particular metric: Euclidean
  Fluid KE gradient: disabled  (eps = 0.001, scale = 1, linear = 1, angular = 1)
  Fluid KE discrete gradient: disabled
  Impulse pair metric correction: disabled  (mode = pair discrete-gradient, cutoff = all pairs, inner/outer = 0/0, eps = 0.001, linear scale = 1, angular scale = 0)
  Impulse metric correction: disabled  (internal load constraint = disabled)
  Impulse variational defect probe: disabled
  Impulse quadratic pressure: disabled  (scale = 1)
  Added-mass stab:   disabled
  Exact BEM geometry: disabled
  Exact singular BEM: disabled
  Legacy singular SLP diagnostic: disabled
  Phi-dot blend:     0 (off)

  Solver guidance:
    - Strong coupling: use for stiff close-coupled runs; slower but more implicit.
    - Impulse scheme: use when impulse/momentum conservation or KE drift is the focus. Recommended.
    - Added-mass stab: use for higher mesh counts (ndiv > 3) to preserve stability - deprecated.
================================================
Solver starting - good luck!

Initial state:
  Body  1
    density:          1.000000
    shape axes ratio: (1.000000, 0.700000, 0.700000)
    initial KE ratio: 1.500000
    position:         (-1.500000, 0.000000, 0.000000)
    velocity:         (-2.463876, -1.104561, 1.731353)
    angular velocity: (-4.615373, -2.675538, 3.319375)
    orientation:      (w=0.534695, i=0.548455, j=-0.055986, k=0.640440)
  Body  2
    density:          1.000000
    shape axes ratio: (1.000000, 0.700000, 0.700000)
    initial KE ratio: 1.500000
    position:         (1.500000, 0.000000, 0.000000)
    velocity:         (-2.415301, -1.082785, 1.697219)
    angular velocity: (-4.997302, -3.771470, -0.530472)
    orientation:      (w=-0.581422, i=-0.252056, j=0.554173, k=0.539730)

Preparing first step: implicit scheme, no bootstrap passes required.
First step may take longer than later steps.

First step completed in 0.295 s.

Step   100/2000    5.0% | t 5.000 | ETA 4m 40s | step 0.15s | KE 173.4980 | drift +20.02% | fluid 31.0630 | solid 142.4350
  Impulse FP iterations last/mean/max 10/10.36/11
Step   200/2000   10.0% | t 10.000 | ETA 4m 25s | step 0.14s | KE 168.5803 | drift +16.62% | fluid 28.3858 | solid 140.1945
  Impulse FP iterations last/mean/max 10/10.22/11
Step   300/2000   15.0% | t 15.000 | ETA 4m 8s | step 0.13s | KE 172.8249 | drift +19.56% | fluid 28.0559 | solid 144.7690
  Impulse FP iterations last/mean/max 10/10.14/11
Step   400/2000   20.0% | t 20.000 | ETA 3m 52s | step 0.15s | KE 174.8928 | drift +20.99% | fluid 30.8360 | solid 144.0568
  Impulse FP iterations last/mean/max 10/10.11/11
Step   500/2000   25.0% | t 25.000 | ETA 3m 37s | step 0.15s | KE 178.9834 | drift +23.82% | fluid 30.0482 | solid 148.9352
  Impulse FP iterations last/mean/max 10/10.08/11
Step   600/2000   30.0% | t 30.000 | ETA 3m 22s | step 0.12s | KE 181.3367 | drift +25.45% | fluid 31.1233 | solid 150.2134
  Impulse FP iterations last/mean/max 9/10.05/11
Step   700/2000   35.0% | t 35.000 | ETA 3m 7s | step 0.15s | KE 183.1827 | drift +26.72% | fluid 28.7210 | solid 154.4617
  Impulse FP iterations last/mean/max 10/10.01/11
Step   800/2000   40.0% | t 40.000 | ETA 2m 51s | step 0.13s | KE 184.1271 | drift +27.38% | fluid 30.6603 | solid 153.4668
  Impulse FP iterations last/mean/max 9/9.96/11
Step   900/2000   45.0% | t 45.000 | ETA 2m 36s | step 0.13s | KE 184.7834 | drift +27.83% | fluid 31.0125 | solid 153.7709
  Impulse FP iterations last/mean/max 9/9.90/11
Step  1000/2000   50.0% | t 50.000 | ETA 2m 21s | step 0.12s | KE 185.0229 | drift +28.00% | fluid 31.0324 | solid 153.9905
  Impulse FP iterations last/mean/max 9/9.85/11
Step  1100/2000   55.0% | t 55.000 | ETA 2m 7s | step 0.15s | KE 185.2108 | drift +28.13% | fluid 29.3199 | solid 155.8909
  Impulse FP iterations last/mean/max 10/9.82/11
Step  1200/2000   60.0% | t 60.000 | ETA 1m 52s | step 0.15s | KE 185.2489 | drift +28.15% | fluid 28.8887 | solid 156.3602
  Impulse FP iterations last/mean/max 10/9.78/11
Step  1300/2000   65.0% | t 65.000 | ETA 1m 38s | step 0.12s | KE 185.0729 | drift +28.03% | fluid 31.1549 | solid 153.9180
  Impulse FP iterations last/mean/max 9/9.76/11
Step  1400/2000   70.0% | t 70.000 | ETA 1m 23s | step 0.14s | KE 185.1146 | drift +28.06% | fluid 30.7838 | solid 154.3308
  Impulse FP iterations last/mean/max 9/9.73/11
Step  1500/2000   75.0% | t 75.000 | ETA 1m 9s | step 0.15s | KE 184.8870 | drift +27.90% | fluid 31.0861 | solid 153.8009
  Impulse FP iterations last/mean/max 10/9.72/11
Step  1600/2000   80.0% | t 80.000 | ETA 55s | step 0.14s | KE 184.9586 | drift +27.95% | fluid 28.8569 | solid 156.1017
  Impulse FP iterations last/mean/max 10/9.70/11
Step  1700/2000   85.0% | t 85.000 | ETA 41s | step 0.12s | KE 184.7801 | drift +27.83% | fluid 30.0200 | solid 154.7601
  Impulse FP iterations last/mean/max 9/9.68/11
Step  1800/2000   90.0% | t 90.000 | ETA 27s | step 0.12s | KE 184.7562 | drift +27.81% | fluid 31.1710 | solid 153.5852
  Impulse FP iterations last/mean/max 9/9.67/11
Step  1900/2000   95.0% | t 95.000 | ETA 13s | step 0.11s | KE 184.6985 | drift +27.77% | fluid 30.9439 | solid 153.7546
  Impulse FP iterations last/mean/max 9/9.65/11
Solver finished successfully - good job!
Results saved successfully.

================== Run summary ==================
  Bodies:            2
  Triangles / nodes: 256 / 516
  Timesteps:         2000  (dt = 0.05)
  Simulated time:    0 -> 100
  First-step setup:  0.295 s
  Mean time/step:    0.1359 s  (excl. first step)
  Total wall time:   4m 32s
  Impulse FP iters last/mean/max: 10 / 9.644 / 11
  Approx impulse solves/step:     9.645
  Impulse start cache hits/direct: 1999 / 1
  Impulse global drift P/H:       7.141782e-9 / 4.927632e-2
  Impulse per-body max drift P/H: 1.650550e-8 / 4.263707e-2
  CPU cores:         256 available, 8 Rayon worker thread(s)
  Started:           2026-06-24 01:34:38
  Finished:          2026-06-24 01:39:10
  Output file:       /work/e643/e643/shared/multi_ellip/studies/two_body_paper_sweeps/runs/spheroid_1_0p7_0p7/spheroid_1_0p7_0p7_rho1_E1p5_sep3_run04_impulse_noproj/multiple_body_complete.dat
================================================
