
================ Simulation setup ================
  Run label:         /work/e643/e643/shared/multi_ellip/studies/two_body_paper_sweeps/runs/ellipsoid_1_0p8_0p6/ellipsoid_1_0p8_0p6_rho4_E30_sep11_run05_impulse_noproj/
  Started:           2026-06-24 01:33:27
  Input file:        /work/e643/e643/shared/multi_ellip/studies/two_body_paper_sweeps/runs/ellipsoid_1_0p8_0p6/ellipsoid_1_0p8_0p6_rho4_E30_sep11_run05_impulse_noproj/input.txt
  Output file:       /work/e643/e643/shared/multi_ellip/studies/two_body_paper_sweeps/runs/ellipsoid_1_0p8_0p6/ellipsoid_1_0p8_0p6_rho4_E30_sep11_run05_impulse_noproj/multiple_body_complete.dat
  Bodies:            2
  Fluid density:     1
  Mesh:              ndiv 2 -> 256 triangles / 516 nodes
  Simulated time:    0 -> 100  (dt = 0.05, ~2000 steps)
  Output cadence:    every 1 step(s)
  Output rows:       ~2001
  Progress cadence:  every 100 step(s)
  CPU cores:         256 available, 8 Rayon worker thread(s)
  Strong coupling:   disabled
  Impulse scheme:    enabled
  Hamiltonian step:  disabled
  Hamiltonian midpt: disabled
  Variational step:  disabled
  Energy projection: disabled
  Projection particular metric: Euclidean
  Fluid KE gradient: disabled  (eps = 0.001, scale = 1, linear = 1, angular = 1)
  Fluid KE discrete gradient: disabled
  Impulse pair metric correction: disabled  (mode = pair discrete-gradient, cutoff = all pairs, inner/outer = 0/0, eps = 0.001, linear scale = 1, angular scale = 0)
  Impulse metric correction: disabled  (internal load constraint = disabled)
  Impulse variational defect probe: disabled
  Impulse quadratic pressure: disabled  (scale = 1)
  Added-mass stab:   disabled
  Exact BEM geometry: disabled
  Exact singular BEM: disabled
  Legacy singular SLP diagnostic: disabled
  Phi-dot blend:     0 (off)

  Solver guidance:
    - Strong coupling: use for stiff close-coupled runs; slower but more implicit.
    - Impulse scheme: use when impulse/momentum conservation or KE drift is the focus. Recommended.
    - Added-mass stab: use for higher mesh counts (ndiv > 3) to preserve stability - deprecated.
================================================
Solver starting - good luck!

Initial state:
  Body  1
    density:          4.000000
    shape axes ratio: (1.000000, 0.800000, 0.600000)
    initial KE ratio: 30.000000
    position:         (-5.500000, 0.000000, 0.000000)
    velocity:         (0.194004, -0.004874, -0.635588)
    angular velocity: (6.133967, 0.434501, -1.289990)
    orientation:      (w=0.559834, i=-0.663271, j=-0.475582, k=0.143103)
  Body  2
    density:          4.000000
    shape axes ratio: (1.000000, 0.800000, 0.600000)
    initial KE ratio: 30.000000
    position:         (5.500000, 0.000000, 0.000000)
    velocity:         (0.232569, -0.005842, -0.761933)
    angular velocity: (0.101938, -4.771948, 4.086140)
    orientation:      (w=-0.614262, i=-0.555953, j=-0.142358, k=-0.541601)

Preparing first step: implicit scheme, no bootstrap passes required.
First step may take longer than later steps.

First step completed in 0.250 s.

Step   100/2000    5.0% | t 5.000 | ETA 3m 47s | step 0.12s | KE 320.7212 | drift +0.01% | fluid 9.5081 | solid 311.2131
  Impulse FP iterations last/mean/max 9/8.85/9
Step   200/2000   10.0% | t 10.000 | ETA 3m 42s | step 0.13s | KE 320.7568 | drift +0.02% | fluid 5.5077 | solid 315.2490
  Impulse FP iterations last/mean/max 9/8.88/9
Step   300/2000   15.0% | t 15.000 | ETA 3m 30s | step 0.13s | KE 320.7889 | drift +0.03% | fluid 7.3435 | solid 313.4455
  Impulse FP iterations last/mean/max 9/8.84/9
Step   400/2000   20.0% | t 20.000 | ETA 3m 19s | step 0.12s | KE 320.8048 | drift +0.04% | fluid 10.2606 | solid 310.5442
  Impulse FP iterations last/mean/max 9/8.87/9
Step   500/2000   25.0% | t 25.000 | ETA 3m 7s | step 0.13s | KE 320.8472 | drift +0.05% | fluid 7.3362 | solid 313.5110
  Impulse FP iterations last/mean/max 9/8.87/9
Step   600/2000   30.0% | t 30.000 | ETA 2m 55s | step 0.14s | KE 320.8713 | drift +0.06% | fluid 11.0211 | solid 309.8503
  Impulse FP iterations last/mean/max 9/8.88/9
Step   700/2000   35.0% | t 35.000 | ETA 2m 43s | step 0.14s | KE 320.8909 | drift +0.06% | fluid 11.8921 | solid 308.9988
  Impulse FP iterations last/mean/max 9/8.88/9
Step   800/2000   40.0% | t 40.000 | ETA 2m 31s | step 0.12s | KE 320.9310 | drift +0.07% | fluid 7.5130 | solid 313.4180
  Impulse FP iterations last/mean/max 9/8.89/9
Step   900/2000   45.0% | t 45.000 | ETA 2m 18s | step 0.12s | KE 320.9377 | drift +0.08% | fluid 10.5114 | solid 310.4263
  Impulse FP iterations last/mean/max 8/8.89/9
Step  1000/2000   50.0% | t 50.000 | ETA 2m 5s | step 0.12s | KE 320.9724 | drift +0.09% | fluid 8.9793 | solid 311.9932
  Impulse FP iterations last/mean/max 9/8.89/9
Step  1100/2000   55.0% | t 55.000 | ETA 1m 53s | step 0.13s | KE 321.0048 | drift +0.10% | fluid 4.2508 | solid 316.7540
  Impulse FP iterations last/mean/max 9/8.89/9
Step  1200/2000   60.0% | t 60.000 | ETA 1m 40s | step 0.13s | KE 321.0079 | drift +0.10% | fluid 8.9223 | solid 312.0856
  Impulse FP iterations last/mean/max 9/8.89/9
Step  1300/2000   65.0% | t 65.000 | ETA 1m 28s | step 0.13s | KE 321.0311 | drift +0.11% | fluid 9.2011 | solid 311.8300
  Impulse FP iterations last/mean/max 9/8.89/9
Step  1400/2000   70.0% | t 70.000 | ETA 1m 15s | step 0.13s | KE 321.0444 | drift +0.11% | fluid 7.9969 | solid 313.0475
  Impulse FP iterations last/mean/max 9/8.88/9
Step  1500/2000   75.0% | t 75.000 | ETA 1m 3s | step 0.13s | KE 321.0428 | drift +0.11% | fluid 12.3250 | solid 308.7178
  Impulse FP iterations last/mean/max 9/8.89/9
Step  1600/2000   80.0% | t 80.000 | ETA 50s | step 0.12s | KE 321.0702 | drift +0.12% | fluid 10.2143 | solid 310.8559
  Impulse FP iterations last/mean/max 9/8.88/9
Step  1700/2000   85.0% | t 85.000 | ETA 37s | step 0.11s | KE 321.0799 | drift +0.12% | fluid 8.4984 | solid 312.5815
  Impulse FP iterations last/mean/max 8/8.88/9
Step  1800/2000   90.0% | t 90.000 | ETA 25s | step 0.12s | KE 321.0893 | drift +0.12% | fluid 10.0096 | solid 311.0797
  Impulse FP iterations last/mean/max 9/8.88/9
Step  1900/2000   95.0% | t 95.000 | ETA 12s | step 0.11s | KE 321.0941 | drift +0.13% | fluid 6.5787 | solid 314.5154
  Impulse FP iterations last/mean/max 9/8.88/9
Solver finished successfully - good job!
Results saved successfully.

================== Run summary ==================
  Bodies:            2
  Triangles / nodes: 256 / 516
  Timesteps:         2000  (dt = 0.05)
  Simulated time:    0 -> 100
  First-step setup:  0.250 s
  Mean time/step:    0.1253 s  (excl. first step)
  Total wall time:   4m 10s
  Impulse FP iters last/mean/max: 8 / 8.877 / 9
  Approx impulse solves/step:     8.877
  Impulse start cache hits/direct: 1999 / 1
  Impulse global drift P/H:       3.952304e-9 / 4.397334e-3
  Impulse per-body max drift P/H: 5.447276e-9 / 4.562581e-3
  CPU cores:         256 available, 8 Rayon worker thread(s)
  Started:           2026-06-24 01:33:27
  Finished:          2026-06-24 01:37:38
  Output file:       /work/e643/e643/shared/multi_ellip/studies/two_body_paper_sweeps/runs/ellipsoid_1_0p8_0p6/ellipsoid_1_0p8_0p6_rho4_E30_sep11_run05_impulse_noproj/multiple_body_complete.dat
================================================
