
================ Simulation setup ================
  Run label:         /work/e643/e643/shared/multi_ellip/studies/departing_sphericity_sweep/runs/triaxial/heterogeneous_sphere/triaxial_heterogeneous_sphere_eps0_rho1_E0p5_sep8_run09_impulse_noproj/
  Started:           2026-06-24 02:37:13
  Input file:        /work/e643/e643/shared/multi_ellip/studies/departing_sphericity_sweep/runs/triaxial/heterogeneous_sphere/triaxial_heterogeneous_sphere_eps0_rho1_E0p5_sep8_run09_impulse_noproj/input.txt
  Output file:       /work/e643/e643/shared/multi_ellip/studies/departing_sphericity_sweep/runs/triaxial/heterogeneous_sphere/triaxial_heterogeneous_sphere_eps0_rho1_E0p5_sep8_run09_impulse_noproj/multiple_body_complete.dat
  Bodies:            2
  Fluid density:     1
  Mesh:              ndiv 2 -> 256 triangles / 516 nodes
  Simulated time:    0 -> 100  (dt = 0.05, ~2000 steps)
  Output cadence:    every 1 step(s)
  Output rows:       ~2001
  Progress cadence:  every 100 step(s)
  CPU cores:         256 available, 8 Rayon worker thread(s)
  Strong coupling:   disabled
  Impulse scheme:    enabled
  Hamiltonian step:  disabled
  Hamiltonian midpt: disabled
  Variational step:  disabled
  Energy projection: disabled
  Projection particular metric: Euclidean
  Fluid KE gradient: disabled  (eps = 0.001, scale = 1, linear = 1, angular = 1)
  Fluid KE discrete gradient: disabled
  Impulse pair metric correction: disabled  (mode = pair discrete-gradient, cutoff = all pairs, inner/outer = 0/0, eps = 0.001, linear scale = 1, angular scale = 0)
  Impulse metric correction: disabled  (internal load constraint = disabled)
  Impulse variational defect probe: disabled
  Impulse quadratic pressure: disabled  (scale = 1)
  Added-mass stab:   disabled
  Exact BEM geometry: disabled
  Exact singular BEM: disabled
  Legacy singular SLP diagnostic: disabled
  Phi-dot blend:     0 (off)

  Solver guidance:
    - Strong coupling: use for stiff close-coupled runs; slower but more implicit.
    - Impulse scheme: use when impulse/momentum conservation or KE drift is the focus. Recommended.
    - Added-mass stab: use for higher mesh counts (ndiv > 3) to preserve stability - deprecated.
================================================
Solver starting - good luck!

Initial state:
  Body  1
    density:          1.000000
    shape axes ratio: (1.000000, 1.000000, 1.000000)
    initial KE ratio: 0.500000
    position:         (-4.000000, 0.000000, 0.000000)
    velocity:         (4.382743, 0.697395, -3.447889)
    angular velocity: (-5.144761, -3.573539, -0.489562)
    orientation:      (w=-0.905603, i=0.007238, j=0.332448, k=-0.263265)
  Body  2
    density:          1.000000
    shape axes ratio: (1.000000, 1.000000, 1.000000)
    initial KE ratio: 0.500000
    position:         (4.000000, 0.000000, 0.000000)
    velocity:         (4.382743, 0.697395, -3.447889)
    angular velocity: (-5.511376, 2.902584, -0.823504)
    orientation:      (w=-0.530563, i=0.315614, j=-0.664977, k=-0.420352)

Preparing first step: implicit scheme, no bootstrap passes required.
First step may take longer than later steps.

First step completed in 0.240 s.

Step   100/2000    5.0% | t 5.000 | ETA 2m 34s | step 0.09s | KE 273.6655 | drift +1.11% | fluid 72.2114 | solid 201.4541
  Impulse FP iterations last/mean/max 6/6.00/6
Step   200/2000   10.0% | t 10.000 | ETA 2m 28s | step 0.07s | KE 279.7498 | drift +3.36% | fluid 72.2113 | solid 207.5384
  Impulse FP iterations last/mean/max 6/6.00/6
Step   300/2000   15.0% | t 15.000 | ETA 2m 19s | step 0.07s | KE 288.9040 | drift +6.74% | fluid 72.2114 | solid 216.6927
  Impulse FP iterations last/mean/max 6/6.00/6
Step   400/2000   20.0% | t 20.000 | ETA 2m 6s | step 0.08s | KE 301.1286 | drift +11.26% | fluid 72.2114 | solid 228.9172
  Impulse FP iterations last/mean/max 6/6.00/6
Step   500/2000   25.0% | t 25.000 | ETA 1m 56s | step 0.08s | KE 316.4233 | drift +16.91% | fluid 72.2114 | solid 244.2119
  Impulse FP iterations last/mean/max 6/6.00/6
Step   600/2000   30.0% | t 30.000 | ETA 1m 49s | step 0.08s | KE 334.7883 | drift +23.70% | fluid 72.2114 | solid 262.5769
  Impulse FP iterations last/mean/max 6/6.00/6
Step   700/2000   35.0% | t 35.000 | ETA 1m 43s | step 0.08s | KE 356.2236 | drift +31.62% | fluid 72.2114 | solid 284.0122
  Impulse FP iterations last/mean/max 6/6.00/6
Step   800/2000   40.0% | t 40.000 | ETA 1m 35s | step 0.08s | KE 380.7288 | drift +40.67% | fluid 72.2114 | solid 308.5174
  Impulse FP iterations last/mean/max 6/6.00/6
Step   900/2000   45.0% | t 45.000 | ETA 1m 28s | step 0.08s | KE 408.3040 | drift +50.86% | fluid 72.2114 | solid 336.0926
  Impulse FP iterations last/mean/max 6/5.99/6
Step  1000/2000   50.0% | t 50.000 | ETA 1m 20s | step 0.08s | KE 438.9490 | drift +62.18% | fluid 72.2114 | solid 366.7376
  Impulse FP iterations last/mean/max 6/5.99/6
Step  1100/2000   55.0% | t 55.000 | ETA 1m 12s | step 0.08s | KE 472.6635 | drift +74.64% | fluid 72.2115 | solid 400.4520
  Impulse FP iterations last/mean/max 6/5.97/6
Step  1200/2000   60.0% | t 60.000 | ETA 1m 4s | step 0.07s | KE 509.4473 | drift +88.23% | fluid 72.2115 | solid 437.2358
  Impulse FP iterations last/mean/max 5/5.96/6
Step  1300/2000   65.0% | t 65.000 | ETA 56s | step 0.08s | KE 549.3004 | drift +102.95% | fluid 72.2115 | solid 477.0888
  Impulse FP iterations last/mean/max 6/5.94/6
Step  1400/2000   70.0% | t 70.000 | ETA 48s | step 0.06s | KE 592.2222 | drift +118.81% | fluid 72.2116 | solid 520.0107
  Impulse FP iterations last/mean/max 5/5.92/6
Step  1500/2000   75.0% | t 75.000 | ETA 39s | step 0.07s | KE 638.2130 | drift +135.81% | fluid 72.2116 | solid 566.0014
  Impulse FP iterations last/mean/max 5/5.88/6
Step  1600/2000   80.0% | t 80.000 | ETA 31s | step 0.08s | KE 687.2724 | drift +153.93% | fluid 72.2116 | solid 615.0607
  Impulse FP iterations last/mean/max 6/5.86/6
Step  1700/2000   85.0% | t 85.000 | ETA 23s | step 0.07s | KE 739.3999 | drift +173.19% | fluid 72.2117 | solid 667.1883
  Impulse FP iterations last/mean/max 5/5.85/6
Step  1800/2000   90.0% | t 90.000 | ETA 15s | step 0.06s | KE 794.5956 | drift +193.59% | fluid 72.2117 | solid 722.3840
  Impulse FP iterations last/mean/max 5/5.83/6
Step  1900/2000   95.0% | t 95.000 | ETA 7s | step 0.07s | KE 852.8593 | drift +215.11% | fluid 72.2117 | solid 780.6475
  Impulse FP iterations last/mean/max 5/5.82/6
Solver finished successfully - good job!
Results saved successfully.

================== Run summary ==================
  Bodies:            2
  Triangles / nodes: 256 / 516
  Timesteps:         2000  (dt = 0.05)
  Simulated time:    0 -> 100
  First-step setup:  0.240 s
  Mean time/step:    0.0788 s  (excl. first step)
  Total wall time:   2m 37s
  Impulse FP iters last/mean/max: 6 / 5.805 / 6
  Approx impulse solves/step:     5.805
  Impulse start cache hits/direct: 1999 / 1
  Impulse global drift P/H:       1.498294e-9 / 6.896110e-2
  Impulse per-body max drift P/H: 2.201013e-9 / 7.692972e-3
  CPU cores:         256 available, 8 Rayon worker thread(s)
  Started:           2026-06-24 02:37:13
  Finished:          2026-06-24 02:39:51
  Output file:       /work/e643/e643/shared/multi_ellip/studies/departing_sphericity_sweep/runs/triaxial/heterogeneous_sphere/triaxial_heterogeneous_sphere_eps0_rho1_E0p5_sep8_run09_impulse_noproj/multiple_body_complete.dat
================================================
